data_TD-COF-5-DFT
_audit_creation_date              0000-00-00
_audit_creation_method            'LanYouShi'
_symmetry_space_group_name_H-M    'P1'
_cell_length_a                    31.3283005
_cell_length_b                    31.3283005
_cell_length_c                    7.5183001
_cell_angle_alpha                 90.0000000
_cell_angle_beta                  90.0000000
_cell_angle_gamma                 120.0000000
loop_
_atom_site_label
_atom_site_type_symbol
_atom_site_fract_x
_atom_site_fract_y
_atom_site_fract_z
_atom_site_U_iso_or_equiv
_atom_site_adp_type
_atom_site_occupancy
        B1          B  0.5564500  0.4435500  0.0000000    0.00000       Uiso       1.00
        C2          C  0.5270680  0.4729320  0.0000000    0.00000       Uiso       1.00
        B3          B  0.5564500  0.1129000  0.0000000    0.00000       Uiso       1.00
        C4          C  0.5270680  0.0541360  0.0000000    0.00000       Uiso       1.00
        B5          B  0.8871000  0.4435500  0.0000000    0.00000       Uiso       1.00
        C6          C  0.9458640  0.4729320  0.0000000    0.00000       Uiso       1.00
        B7          B  0.4435500  0.5564500  0.0000000    0.00000       Uiso       1.00
        C8          C  0.4729320  0.5270680  0.0000000    0.00000       Uiso       1.00
        B9          B  0.4435500  0.8871000  0.0000000    0.00000       Uiso       1.00
       C10          C  0.4729320  0.9458640  0.0000000    0.00000       Uiso       1.00
       B11          B  0.1129000  0.5564500  0.0000000    0.00000       Uiso       1.00
       C12          C  0.0541360  0.5270680  0.0000000    0.00000       Uiso       1.00
       C13          C  0.2804300  0.6402150  0.0937670    0.00000       Uiso       1.00
       C14          C  0.1919100  0.5959550 -0.0926690    0.00000       Uiso       1.00
       H15          H  0.2354260  0.6177130 -0.3351310    0.00000       Uiso       1.00
       O16          O  0.1433510  0.5716750 -0.1530470    0.00000       Uiso       1.00
       C17          C  0.3597850  0.6402150  0.0937670    0.00000       Uiso       1.00
       C18          C  0.4040450  0.5959550 -0.0926690    0.00000       Uiso       1.00
       H19          H  0.3822870  0.6177130 -0.3351310    0.00000       Uiso       1.00
       O20          O  0.4283240  0.5716750 -0.1530470    0.00000       Uiso       1.00
       C21          C  0.3597850  0.7195700  0.0937670    0.00000       Uiso       1.00
       C22          C  0.4040450  0.8080890 -0.0926690    0.00000       Uiso       1.00
       H23          H  0.3822870  0.7645740 -0.3351310    0.00000       Uiso       1.00
       O24          O  0.4283240  0.8566490 -0.1530470    0.00000       Uiso       1.00
       C25          C  0.7195700  0.3597850  0.0937670    0.00000       Uiso       1.00
       C26          C  0.8080890  0.4040450 -0.0926690    0.00000       Uiso       1.00
       H27          H  0.7645740  0.3822870 -0.3351310    0.00000       Uiso       1.00
       O28          O  0.8566490  0.4283240 -0.1530470    0.00000       Uiso       1.00
       C29          C  0.6402150  0.3597850  0.0937670    0.00000       Uiso       1.00
       C30          C  0.5959550  0.4040450 -0.0926690    0.00000       Uiso       1.00
       H31          H  0.6177130  0.3822870 -0.3351310    0.00000       Uiso       1.00
       O32          O  0.5716750  0.4283240 -0.1530470    0.00000       Uiso       1.00
       C33          C  0.6402150  0.2804300  0.0937670    0.00000       Uiso       1.00
       C34          C  0.5959550  0.1919100 -0.0926690    0.00000       Uiso       1.00
       H35          H  0.6177130  0.2354260 -0.3351310    0.00000       Uiso       1.00
       O36          O  0.5716750  0.1433510 -0.1530470    0.00000       Uiso       1.00
       C37          C  0.6402150  0.2804300 -0.0937670    0.00000       Uiso       1.00
       C38          C  0.5959550  0.1919100  0.0926690    0.00000       Uiso       1.00
       H39          H  0.6177130  0.2354260  0.3351310    0.00000       Uiso       1.00
       O40          O  0.5716750  0.1433510  0.1530470    0.00000       Uiso       1.00
       C41          C  0.6402150  0.3597850 -0.0937670    0.00000       Uiso       1.00
       C42          C  0.5959550  0.4040450  0.0926690    0.00000       Uiso       1.00
       H43          H  0.6177130  0.3822870  0.3351310    0.00000       Uiso       1.00
       O44          O  0.5716750  0.4283240  0.1530470    0.00000       Uiso       1.00
       C45          C  0.7195700  0.3597850 -0.0937670    0.00000       Uiso       1.00
       C46          C  0.8080890  0.4040450  0.0926690    0.00000       Uiso       1.00
       H47          H  0.7645740  0.3822870  0.3351310    0.00000       Uiso       1.00
       O48          O  0.8566490  0.4283240  0.1530470    0.00000       Uiso       1.00
       C49          C  0.3597850  0.7195700 -0.0937670    0.00000       Uiso       1.00
       C50          C  0.4040450  0.8080890  0.0926690    0.00000       Uiso       1.00
       H51          H  0.3822870  0.7645740  0.3351310    0.00000       Uiso       1.00
       O52          O  0.4283240  0.8566490  0.1530470    0.00000       Uiso       1.00
       C53          C  0.3597850  0.6402150 -0.0937670    0.00000       Uiso       1.00
       C54          C  0.4040450  0.5959550  0.0926690    0.00000       Uiso       1.00
       H55          H  0.3822870  0.6177130  0.3351310    0.00000       Uiso       1.00
       O56          O  0.4283240  0.5716750  0.1530470    0.00000       Uiso       1.00
       C57          C  0.2804300  0.6402150 -0.0937670    0.00000       Uiso       1.00
       C58          C  0.1919100  0.5959550  0.0926690    0.00000       Uiso       1.00
       H59          H  0.2354260  0.6177130  0.3351310    0.00000       Uiso       1.00
       O60          O  0.1433510  0.5716750  0.1530470    0.00000       Uiso       1.00
       C61          C  0.3333330  0.6666670  0.1712270    0.00000       Uiso       1.00
       H62          H  0.3333330  0.6666670 -0.3173900    0.00000       Uiso       1.00
       C63          C  0.6666670  0.3333330  0.1712270    0.00000       Uiso       1.00
       H64          H  0.6666670  0.3333330 -0.3173900    0.00000       Uiso       1.00
       C65          C  0.6666670  0.3333330 -0.1712270    0.00000       Uiso       1.00
       H66          H  0.6666670  0.3333330  0.3173900    0.00000       Uiso       1.00
       C67          C  0.3333330  0.6666670 -0.1712270    0.00000       Uiso       1.00
       H68          H  0.3333330  0.6666670  0.3173900    0.00000       Uiso       1.00
       C69          C  0.4870580  0.5129410  0.1586020    0.00000       Uiso       1.00
       H70          H  0.4775700  0.5224300  0.2868110    0.00000       Uiso       1.00
       C71          C  0.3820170  0.6179830  0.1899400    0.00000       Uiso       1.00
       C72          C  0.4870590  0.9741170  0.1586020    0.00000       Uiso       1.00
       H73          H  0.4775700  0.9551400  0.2868110    0.00000       Uiso       1.00
       C74          C  0.3820170  0.7640350  0.1899400    0.00000       Uiso       1.00
       C75          C  0.0258830  0.5129410  0.1586020    0.00000       Uiso       1.00
       H76          H  0.0448600  0.5224300  0.2868110    0.00000       Uiso       1.00
       C77          C  0.2359650  0.6179830  0.1899400    0.00000       Uiso       1.00
       C78          C  0.5129410  0.4870590  0.1586020    0.00000       Uiso       1.00
       H79          H  0.5224300  0.4775700  0.2868110    0.00000       Uiso       1.00
       C80          C  0.6179830  0.3820170  0.1899400    0.00000       Uiso       1.00
       C81          C  0.5129410  0.0258830  0.1586020    0.00000       Uiso       1.00
       H82          H  0.5224300  0.0448600  0.2868110    0.00000       Uiso       1.00
       C83          C  0.6179830  0.2359650  0.1899400    0.00000       Uiso       1.00
       C84          C  0.9741169  0.4870590  0.1586020    0.00000       Uiso       1.00
       H85          H  0.9551400  0.4775700  0.2868110    0.00000       Uiso       1.00
       C86          C  0.7640350  0.3820170  0.1899400    0.00000       Uiso       1.00
       C87          C  0.5129410  0.4870590 -0.1586020    0.00000       Uiso       1.00
       H88          H  0.5224300  0.4775700 -0.2868110    0.00000       Uiso       1.00
       C89          C  0.6179830  0.3820170 -0.1899400    0.00000       Uiso       1.00
       C90          C  0.9741169  0.4870590 -0.1586020    0.00000       Uiso       1.00
       H91          H  0.9551400  0.4775700 -0.2868110    0.00000       Uiso       1.00
       C92          C  0.7640350  0.3820170 -0.1899400    0.00000       Uiso       1.00
       C93          C  0.5129410  0.0258830 -0.1586020    0.00000       Uiso       1.00
       H94          H  0.5224300  0.0448600 -0.2868110    0.00000       Uiso       1.00
       C95          C  0.6179830  0.2359650 -0.1899400    0.00000       Uiso       1.00
       C96          C  0.4870580  0.5129410 -0.1586020    0.00000       Uiso       1.00
       H97          H  0.4775700  0.5224300 -0.2868110    0.00000       Uiso       1.00
       C98          C  0.3820170  0.6179830 -0.1899400    0.00000       Uiso       1.00
       C99          C  0.0258830  0.5129410 -0.1586020    0.00000       Uiso       1.00
      H100          H  0.0448600  0.5224300 -0.2868110    0.00000       Uiso       1.00
      C101          C  0.2359650  0.6179830 -0.1899400    0.00000       Uiso       1.00
      C102          C  0.4870590  0.9741170 -0.1586020    0.00000       Uiso       1.00
      H103          H  0.4775700  0.9551400 -0.2868110    0.00000       Uiso       1.00
      C104          C  0.3820170  0.7640350 -0.1899400    0.00000       Uiso       1.00
