data_2D-NiPc-BTDA-COF
_audit_creation_date              2016-12-13
_audit_creation_method            'Materials Studio'
_symmetry_space_group_name_H-M    'P1'
_symmetry_Int_Tables_number       1
_symmetry_cell_setting            triclinic
loop_
_symmetry_equiv_pos_as_xyz
  x,y,z
_cell_length_a                    46.4916
_cell_length_b                    46.4916
_cell_length_c                    3.4049
_cell_angle_alpha                 90.0000
_cell_angle_beta                  90.0000
_cell_angle_gamma                 90.0000
loop_
_atom_site_label
_atom_site_type_symbol
_atom_site_fract_x
_atom_site_fract_y
_atom_site_fract_z
_atom_site_U_iso_or_equiv
_atom_site_adp_type
_atom_site_occupancy
N1     N     0.50471   0.53960   0.50000   0.00000  Uiso   1.00
N2     N     0.55802   0.54447   0.50000   0.00000  Uiso   1.00
C1     C     0.56271   0.51588   0.50000   0.00000  Uiso   1.00
C2     C     0.58972   0.50287   0.50000   0.00000  Uiso   1.00
C3     C     0.58571   0.47334   0.50000   0.00000  Uiso   1.00
C4     C     0.55615   0.46834   0.50000   0.00000  Uiso   1.00
C5     C     0.60929   0.45410   0.50001   0.00000  Uiso   1.00
C6     C     0.63721   0.46625   0.50001   0.00000  Uiso   1.00
C7     C     0.64100   0.49584   0.50001   0.00000  Uiso   1.00
C8     C     0.61745   0.51499   0.50001   0.00000  Uiso   1.00
O1     O     0.66984   0.50366   0.50001   0.00000  Uiso   1.00
B1     B     0.68416   0.47537   0.50001   0.00000  Uiso   1.00
O2     O     0.66340   0.45130   0.50001   0.00000  Uiso   1.00
N3     N     0.94366   0.54519   0.49998   0.00000  Uiso   1.00
C9     C     0.93784   0.51491   0.49998   0.00000  Uiso   1.00
N4     N     0.95860   0.49422   0.49999   0.00000  Uiso   1.00
C10    C     0.94303   0.46881   0.50000   0.00000  Uiso   1.00
C11    C     0.91361   0.47319   0.49999   0.00000  Uiso   1.00
C12    C     0.91015   0.50262   0.49998   0.00000  Uiso   1.00
C13    C     0.88245   0.51486   0.49996   0.00000  Uiso   1.00
C14    C     0.85870   0.49572   0.49997   0.00000  Uiso   1.00
C15    C     0.86224   0.46602   0.49998   0.00000  Uiso   1.00
C16    C     0.88993   0.45345   0.49999   0.00000  Uiso   1.00
C17    C     0.98285   0.43603   0.50000   0.00000  Uiso   1.00
C18    C     0.98246   0.37991   0.50000   0.00000  Uiso   1.00
C19    C     0.00168   0.35704   0.50000   0.00000  Uiso   1.00
N5     N     0.95469   0.44059   0.50000   0.00000  Uiso   1.00
O3     O     0.82985   0.50364   0.49996   0.00000  Uiso   1.00
B2     B     0.81535   0.47539   0.49998   0.00000  Uiso   1.00
C20    C     0.78079   0.47276   0.49999   0.00000  Uiso   1.00
C21    C     0.76463   0.44685   0.50000   0.00000  Uiso   1.00
C22    C     0.73461   0.49858   0.50000   0.00000  Uiso   1.00
C23    C     0.76488   0.49857   0.50000   0.00000  Uiso   1.00
O4     O     0.83596   0.45125   0.49999   0.00000  Uiso   1.00
H1     H     0.60617   0.43104   0.50001   0.00000  Uiso   1.00
H2     H     0.62065   0.53804   0.50001   0.00000  Uiso   1.00
H3     H     0.89196   0.42953   0.50000   0.00000  Uiso   1.00
H4     H     0.87938   0.53793   0.49995   0.00000  Uiso   1.00
H5     H     0.72370   0.51916   0.50001   0.00000  Uiso   1.00
H6     H     0.77581   0.51915   0.49999   0.00000  Uiso   1.00
N6     N     0.72361   0.42019   0.50001   0.00000  Uiso   1.00
N7     N     0.77566   0.42010   0.50000   0.00000  Uiso   1.00
S1     S     0.74956   0.39436   0.50000   0.00000  Uiso   1.00
C24    C     0.55575   0.02958   0.50000   0.00000  Uiso   1.00
C25    C     0.58679   0.02437   0.50000   0.00000  Uiso   1.00
C26    C     0.63694   0.03056   0.50000   0.00000  Uiso   1.00
C27    C     0.61009   0.04364   0.50000   0.00000  Uiso   1.00
H7     H     0.60719   0.06682   0.50000   0.00000  Uiso   1.00
N8     N     0.54099   0.00332   0.50000   0.00000  Uiso   1.00
N9     N     0.95468   0.05578   0.50000   0.00000  Uiso   1.00
C28    C     0.94338   0.02958   0.50000   0.00000  Uiso   1.00
N10    N     0.95815   0.00333   0.50000   0.00000  Uiso   1.00
C29    C     0.59052   0.99410   0.50000   0.00000  Uiso   1.00
O5     O     0.67043   0.99417   0.50000   0.00000  Uiso   1.00
B3     B     0.68501   0.02135   0.50000   0.00000  Uiso   1.00
O6     O     0.66428   0.04384   0.50000   0.00000  Uiso   1.00
C30    C     0.91235   0.02436   0.50000   0.00000  Uiso   1.00
C31    C     0.90862   0.99409   0.50000   0.00000  Uiso   1.00
C32    C     0.93745   0.98148   0.50000   0.00000  Uiso   1.00
C33    C     0.88134   0.98104   0.50000   0.00000  Uiso   1.00
C34    C     0.85845   0.00023   0.50000   0.00000  Uiso   1.00
C35    C     0.86220   0.03055   0.50000   0.00000  Uiso   1.00
C36    C     0.88904   0.04362   0.50000   0.00000  Uiso   1.00
O7     O     0.83484   0.04382   0.50000   0.00000  Uiso   1.00
B4     B     0.81413   0.02132   0.50000   0.00000  Uiso   1.00
C37    C     0.78105   0.02332   0.50000   0.00000  Uiso   1.00
C38    C     0.76500   0.99817   0.50000   0.00000  Uiso   1.00
C39    C     0.73412   0.99817   0.50000   0.00000  Uiso   1.00
C40    C     0.71808   0.02332   0.50000   0.00000  Uiso   1.00
C41    C     0.73368   0.05030   0.50000   0.00000  Uiso   1.00
O8     O     0.82870   0.99415   0.50000   0.00000  Uiso   1.00
H8     H     0.62053   0.95785   0.50000   0.00000  Uiso   1.00
H9     H     0.87861   0.95783   0.50000   0.00000  Uiso   1.00
H10    H     0.89193   0.06681   0.50000   0.00000  Uiso   1.00
H11    H     0.72282   0.97762   0.50000   0.00000  Uiso   1.00
H12    H     0.77632   0.97762   0.50000   0.00000  Uiso   1.00
N11    N     0.72114   0.07619   0.50000   0.00000  Uiso   1.00
N12    N     0.77798   0.07619   0.50000   0.00000  Uiso   1.00
S2     S     0.74956   0.10196   0.50000   0.00000  Uiso   1.00
C42    C     0.71868   0.47278   0.50001   0.00000  Uiso   1.00
C43    C     0.73476   0.44689   0.50000   0.00000  Uiso   1.00
C44    C     0.76545   0.05030   0.50000   0.00000  Uiso   1.00
N13    N     0.49529   0.46040   0.50000   0.00000  Uiso   1.00
N14    N     0.44285   0.45695   0.50000   0.00000  Uiso   1.00
C45    C     0.43828   0.48512   0.50000   0.00000  Uiso   1.00
C46    C     0.40945   0.49773   0.50000   0.00000  Uiso   1.00
C47    C     0.41320   0.52801   0.50000   0.00000  Uiso   1.00
C48    C     0.44424   0.53321   0.50000   0.00000  Uiso   1.00
C49    C     0.38991   0.54728   0.50000   0.00000  Uiso   1.00
C50    C     0.36306   0.53422   0.50000   0.00000  Uiso   1.00
C51    C     0.35930   0.50390   0.50000   0.00000  Uiso   1.00
C52    C     0.38218   0.48470   0.50000   0.00000  Uiso   1.00
O9     O     0.32956   0.49784   0.50000   0.00000  Uiso   1.00
B5     B     0.31498   0.52502   0.50000   0.00000  Uiso   1.00
O10    O     0.33573   0.54750   0.50000   0.00000  Uiso   1.00
N15    N     0.05802   0.45695   0.50000   0.00000  Uiso   1.00
C53    C     0.06259   0.48512   0.50000   0.00000  Uiso   1.00
N16    N     0.04186   0.50697   0.50000   0.00000  Uiso   1.00
C54    C     0.05663   0.53321   0.50000   0.00000  Uiso   1.00
C55    C     0.08766   0.52801   0.50000   0.00000  Uiso   1.00
C56    C     0.09141   0.49774   0.50000   0.00000  Uiso   1.00
C57    C     0.11870   0.48471   0.50000   0.00000  Uiso   1.00
C58    C     0.14157   0.50391   0.50000   0.00000  Uiso   1.00
C59    C     0.13781   0.53423   0.50000   0.00000  Uiso   1.00
C60    C     0.11096   0.54729   0.50000   0.00000  Uiso   1.00
C61    C     0.01715   0.56397   0.50000   0.00000  Uiso   1.00
C62    C     0.01754   0.62009   0.50000   0.00000  Uiso   1.00
C63    C     0.99813   0.64237   0.50000   0.00000  Uiso   1.00
N17    N     0.04531   0.55941   0.50000   0.00000  Uiso   1.00
O11    O     0.17131   0.49786   0.50000   0.00000  Uiso   1.00
B6     B     0.18588   0.52503   0.50000   0.00000  Uiso   1.00
C64    C     0.21895   0.52701   0.50000   0.00000  Uiso   1.00
C65    C     0.23455   0.55398   0.50000   0.00000  Uiso   1.00
C66    C     0.26587   0.50184   0.50000   0.00000  Uiso   1.00
C67    C     0.23499   0.50185   0.50000   0.00000  Uiso   1.00
O12    O     0.16514   0.54752   0.50000   0.00000  Uiso   1.00
H13    H     0.39281   0.57046   0.50000   0.00000  Uiso   1.00
H14    H     0.37942   0.46150   0.50000   0.00000  Uiso   1.00
H15    H     0.10804   0.57047   0.50000   0.00000  Uiso   1.00
H16    H     0.12146   0.46151   0.50000   0.00000  Uiso   1.00
H17    H     0.27718   0.48131   0.50000   0.00000  Uiso   1.00
H18    H     0.22367   0.48132   0.50000   0.00000  Uiso   1.00
N18    N     0.27886   0.57987   0.50000   0.00000  Uiso   1.00
N19    N     0.22202   0.57987   0.50000   0.00000  Uiso   1.00
S3     S     0.25044   0.60564   0.50000   0.00000  Uiso   1.00
C68    C     0.44425   0.97042   0.50000   0.00000  Uiso   1.00
C69    C     0.41321   0.97563   0.50000   0.00000  Uiso   1.00
C70    C     0.36306   0.96944   0.50000   0.00000  Uiso   1.00
C71    C     0.38991   0.95636   0.50000   0.00000  Uiso   1.00
H19    H     0.39281   0.93318   0.50000   0.00000  Uiso   1.00
N20    N     0.45901   0.99668   0.50000   0.00000  Uiso   1.00
N21    N     0.04532   0.94422   0.50000   0.00000  Uiso   1.00
C72    C     0.05662   0.97042   0.50000   0.00000  Uiso   1.00
N22    N     0.04185   0.99667   0.50000   0.00000  Uiso   1.00
C73    C     0.40948   0.00590   0.50000   0.00000  Uiso   1.00
O13    O     0.32957   0.00583   0.50000   0.00000  Uiso   1.00
B7     B     0.31499   0.97865   0.50000   0.00000  Uiso   1.00
O14    O     0.33572   0.95616   0.50000   0.00000  Uiso   1.00
C74    C     0.08765   0.97564   0.50000   0.00000  Uiso   1.00
C75    C     0.09138   0.00591   0.50000   0.00000  Uiso   1.00
C76    C     0.06255   0.01852   0.50000   0.00000  Uiso   1.00
C77    C     0.11866   0.01896   0.50000   0.00000  Uiso   1.00
C78    C     0.14155   0.99977   0.50000   0.00000  Uiso   1.00
C79    C     0.13780   0.96945   0.50000   0.00000  Uiso   1.00
C80    C     0.11096   0.95638   0.50000   0.00000  Uiso   1.00
O15    O     0.16516   0.95618   0.50000   0.00000  Uiso   1.00
B8     B     0.18587   0.97868   0.50000   0.00000  Uiso   1.00
C81    C     0.21895   0.97668   0.50000   0.00000  Uiso   1.00
C82    C     0.23500   0.00183   0.50000   0.00000  Uiso   1.00
C83    C     0.26588   0.00183   0.50000   0.00000  Uiso   1.00
C84    C     0.28192   0.97668   0.50000   0.00000  Uiso   1.00
C85    C     0.26632   0.94970   0.50000   0.00000  Uiso   1.00
O16    O     0.17130   0.00585   0.50000   0.00000  Uiso   1.00
H20    H     0.37947   0.04215   0.50000   0.00000  Uiso   1.00
H21    H     0.12139   0.04217   0.50000   0.00000  Uiso   1.00
H22    H     0.10807   0.93319   0.50000   0.00000  Uiso   1.00
H23    H     0.27718   0.02238   0.50000   0.00000  Uiso   1.00
H24    H     0.22368   0.02238   0.50000   0.00000  Uiso   1.00
N23    N     0.27886   0.92381   0.50000   0.00000  Uiso   1.00
N24    N     0.22202   0.92381   0.50000   0.00000  Uiso   1.00
S4     S     0.25044   0.89804   0.50000   0.00000  Uiso   1.00
C86    C     0.28192   0.52700   0.50000   0.00000  Uiso   1.00
C87    C     0.26633   0.55398   0.50000   0.00000  Uiso   1.00
C88    C     0.23455   0.94970   0.50000   0.00000  Uiso   1.00
Ni1    Ni   -0.00013   0.50025   0.50000   0.00000  Uiso   1.00
Ni2    Ni    0.00041   0.00181   0.50000   0.00000  Uiso   1.00
N25    N     0.46040   0.50471   0.50000   0.00000  Uiso   1.00
N26    N     0.45695   0.55715   0.50000   0.00000  Uiso   1.00
C89    C     0.48512   0.56172   0.50000   0.00000  Uiso   1.00
C90    C     0.49773   0.59055   0.50000   0.00000  Uiso   1.00
C91    C     0.52680   0.58618   0.50000   0.00000  Uiso   1.00
C92    C     0.53144   0.55621   0.50000   0.00000  Uiso   1.00
C93    C     0.54588   0.60984   0.50000   0.00000  Uiso   1.00
C94    C     0.53336   0.63767   0.50000   0.00000  Uiso   1.00
C95    C     0.50365   0.64130   0.50000   0.00000  Uiso   1.00
C96    C     0.48470   0.61782   0.50000   0.00000  Uiso   1.00
O17    O     0.49548   0.66991   0.50000   0.00000  Uiso   1.00
B9     B     0.52360   0.68425   0.50000   0.00000  Uiso   1.00
O18    O     0.54798   0.66392   0.50000   0.00000  Uiso   1.00
N27    N     0.45695   0.94198   0.50000   0.00000  Uiso   1.00
C97    C     0.48512   0.93741   0.50000   0.00000  Uiso   1.00
N28    N     0.50697   0.95814   0.50000   0.00000  Uiso   1.00
C98    C     0.53321   0.94337   0.50000   0.00000  Uiso   1.00
C99    C     0.52801   0.91234   0.50000   0.00000  Uiso   1.00
C100   C     0.49774   0.90859   0.50000   0.00000  Uiso   1.00
C101   C     0.48471   0.88130   0.50000   0.00000  Uiso   1.00
C102   C     0.50391   0.85843   0.50000   0.00000  Uiso   1.00
C103   C     0.53423   0.86219   0.50000   0.00000  Uiso   1.00
C104   C     0.54729   0.88904   0.50000   0.00000  Uiso   1.00
C105   C     0.56397   0.98285   0.50000   0.00000  Uiso   1.00
C106   C     0.62009   0.98246   0.50000   0.00000  Uiso   1.00
C107   C     0.64296   0.00168   0.50000   0.00000  Uiso   1.00
N29    N     0.55941   0.95469   0.50000   0.00000  Uiso   1.00
O19    O     0.49786   0.82869   0.50000   0.00000  Uiso   1.00
B10    B     0.52503   0.81412   0.50000   0.00000  Uiso   1.00
C108   C     0.52677   0.77998   0.50000   0.00000  Uiso   1.00
C109   C     0.55225   0.76370   0.50000   0.00000  Uiso   1.00
C110   C     0.50019   0.73440   0.50000   0.00000  Uiso   1.00
C111   C     0.50063   0.76460   0.50000   0.00000  Uiso   1.00
O20    O     0.54752   0.83486   0.50000   0.00000  Uiso   1.00
H25    H     0.56896   0.60692   0.50000   0.00000  Uiso   1.00
H26    H     0.46150   0.62058   0.50000   0.00000  Uiso   1.00
H27    H     0.57047   0.89196   0.50000   0.00000  Uiso   1.00
H28    H     0.46151   0.87854   0.50000   0.00000  Uiso   1.00
H29    H     0.47951   0.72367   0.50000   0.00000  Uiso   1.00
H30    H     0.48023   0.77586   0.50000   0.00000  Uiso   1.00
N30    N     0.57823   0.72244   0.50000   0.00000  Uiso   1.00
N31    N     0.57895   0.77456   0.50000   0.00000  Uiso   1.00
S5     S     0.60410   0.74815   0.50000   0.00000  Uiso   1.00
C112   C     0.96927   0.55648   0.49999   0.00000  Uiso   1.00
C113   C     0.97582   0.58713   0.49999   0.00000  Uiso   1.00
C114   C     0.96870   0.63827   0.49999   0.00000  Uiso   1.00
C115   C     0.95672   0.61059   0.49998   0.00000  Uiso   1.00
H31    H     0.93366   0.60747   0.49997   0.00000  Uiso   1.00
N32    N     0.99555   0.54094   0.50000   0.00000  Uiso   1.00
N33    N     0.94422   0.95468   0.50000   0.00000  Uiso   1.00
C116   C     0.97042   0.94338   0.50000   0.00000  Uiso   1.00
N34    N     0.99667   0.95815   0.50000   0.00000  Uiso   1.00
C117   C     0.00590   0.59052   0.50000   0.00000  Uiso   1.00
O21    O     0.00583   0.67043   0.50000   0.00000  Uiso   1.00
B11    B     0.97792   0.68448   0.50000   0.00000  Uiso   1.00
O22    O     0.95366   0.66418   0.49999   0.00000  Uiso   1.00
C118   C     0.97615   0.91334   0.50000   0.00000  Uiso   1.00
C119   C     0.00591   0.90862   0.50000   0.00000  Uiso   1.00
C120   C     0.01852   0.93745   0.50000   0.00000  Uiso   1.00
C121   C     0.01896   0.88134   0.50000   0.00000  Uiso   1.00
C122   C     0.99908   0.85789   0.50000   0.00000  Uiso   1.00
C123   C     0.96931   0.86208   0.50000   0.00000  Uiso   1.00
C124   C     0.95710   0.88986   0.50000   0.00000  Uiso   1.00
O23    O     0.95396   0.83623   0.50000   0.00000  Uiso   1.00
B12    B     0.97774   0.81543   0.50000   0.00000  Uiso   1.00
C125   C     0.97562   0.78123   0.50001   0.00000  Uiso   1.00
C126   C     0.00183   0.76500   0.50000   0.00000  Uiso   1.00
C127   C     0.00183   0.73412   0.50000   0.00000  Uiso   1.00
C128   C     0.97587   0.71823   0.50000   0.00000  Uiso   1.00
C129   C     0.94954   0.73295   0.50000   0.00000  Uiso   1.00
O24    O     0.00585   0.82870   0.50000   0.00000  Uiso   1.00
H32    H     0.04215   0.62053   0.50000   0.00000  Uiso   1.00
H33    H     0.04217   0.87861   0.50000   0.00000  Uiso   1.00
H34    H     0.93403   0.89290   0.50000   0.00000  Uiso   1.00
H35    H     0.02238   0.72282   0.50000   0.00000  Uiso   1.00
H36    H     0.02238   0.77632   0.50000   0.00000  Uiso   1.00
N35    N     0.92462   0.72077   0.50000   0.00000  Uiso   1.00
N36    N     0.92291   0.77479   0.50000   0.00000  Uiso   1.00
S6     S     0.89649   0.74693   0.50000   0.00000  Uiso   1.00
C130   C     0.52588   0.71837   0.50000   0.00000  Uiso   1.00
C131   C     0.55183   0.73399   0.50000   0.00000  Uiso   1.00
C132   C     0.94844   0.76408   0.50000   0.00000  Uiso   1.00
N37    N     0.54037   0.49477   0.50000   0.00000  Uiso   1.00
N38    N     0.54369   0.44221   0.50000   0.00000  Uiso   1.00
C133   C     0.51488   0.43828   0.50000   0.00000  Uiso   1.00
C134   C     0.50227   0.40945   0.50000   0.00000  Uiso   1.00
C135   C     0.47199   0.41320   0.50000   0.00000  Uiso   1.00
C136   C     0.46679   0.44424   0.50000   0.00000  Uiso   1.00
C137   C     0.45272   0.38991   0.50000   0.00000  Uiso   1.00
C138   C     0.46578   0.36306   0.50000   0.00000  Uiso   1.00
C139   C     0.49610   0.35930   0.50000   0.00000  Uiso   1.00
C140   C     0.51530   0.38218   0.50000   0.00000  Uiso   1.00
O25    O     0.50216   0.32956   0.50000   0.00000  Uiso   1.00
B13    B     0.47498   0.31498   0.50000   0.00000  Uiso   1.00
O26    O     0.45250   0.33573   0.50000   0.00000  Uiso   1.00
N39    N     0.54305   0.05802   0.50000   0.00000  Uiso   1.00
C141   C     0.51488   0.06259   0.50000   0.00000  Uiso   1.00
N40    N     0.49303   0.04186   0.50000   0.00000  Uiso   1.00
C142   C     0.46679   0.05663   0.50000   0.00000  Uiso   1.00
C143   C     0.47199   0.08766   0.50000   0.00000  Uiso   1.00
C144   C     0.50226   0.09141   0.50000   0.00000  Uiso   1.00
C145   C     0.51529   0.11870   0.50000   0.00000  Uiso   1.00
C146   C     0.49609   0.14157   0.50000   0.00000  Uiso   1.00
C147   C     0.46577   0.13781   0.50000   0.00000  Uiso   1.00
C148   C     0.45271   0.11096   0.50000   0.00000  Uiso   1.00
C149   C     0.43603   0.01715   0.50000   0.00000  Uiso   1.00
C150   C     0.37991   0.01754   0.50000   0.00000  Uiso   1.00
C151   C     0.35704   0.99832   0.50000   0.00000  Uiso   1.00
N41    N     0.44059   0.04531   0.50000   0.00000  Uiso   1.00
O27    O     0.50214   0.17131   0.50000   0.00000  Uiso   1.00
B14    B     0.47497   0.18588   0.50000   0.00000  Uiso   1.00
C152   C     0.47299   0.21895   0.50000   0.00000  Uiso   1.00
C153   C     0.44602   0.23455   0.50000   0.00000  Uiso   1.00
C154   C     0.49816   0.26587   0.50000   0.00000  Uiso   1.00
C155   C     0.49815   0.23499   0.50000   0.00000  Uiso   1.00
O28    O     0.45248   0.16514   0.50000   0.00000  Uiso   1.00
H37    H     0.42954   0.39281   0.50000   0.00000  Uiso   1.00
H38    H     0.53850   0.37942   0.50000   0.00000  Uiso   1.00
H39    H     0.42953   0.10804   0.50000   0.00000  Uiso   1.00
H40    H     0.53849   0.12146   0.50000   0.00000  Uiso   1.00
H41    H     0.51869   0.27718   0.50000   0.00000  Uiso   1.00
H42    H     0.51868   0.22367   0.50000   0.00000  Uiso   1.00
N42    N     0.42013   0.27886   0.50000   0.00000  Uiso   1.00
N43    N     0.42013   0.22202   0.50000   0.00000  Uiso   1.00
S7     S     0.39436   0.25044   0.50000   0.00000  Uiso   1.00
C156   C     0.02958   0.44425   0.50000   0.00000  Uiso   1.00
C157   C     0.02437   0.41321   0.50000   0.00000  Uiso   1.00
C158   C     0.03056   0.36306   0.50000   0.00000  Uiso   1.00
C159   C     0.04364   0.38991   0.50000   0.00000  Uiso   1.00
H43    H     0.06682   0.39281   0.50000   0.00000  Uiso   1.00
N44    N     0.00332   0.45901   0.50000   0.00000  Uiso   1.00
N45    N     0.05578   0.04532   0.50000   0.00000  Uiso   1.00
C160   C     0.02958   0.05662   0.50000   0.00000  Uiso   1.00
N46    N     0.00333   0.04185   0.50000   0.00000  Uiso   1.00
C161   C     0.99410   0.40948   0.50000   0.00000  Uiso   1.00
O29    O     0.99417   0.32957   0.50000   0.00000  Uiso   1.00
B15    B     0.02135   0.31499   0.50000   0.00000  Uiso   1.00
O30    O     0.04384   0.33572   0.50000   0.00000  Uiso   1.00
C162   C     0.02436   0.08765   0.50000   0.00000  Uiso   1.00
C163   C     0.99409   0.09138   0.50000   0.00000  Uiso   1.00
C164   C     0.98148   0.06255   0.50000   0.00000  Uiso   1.00
C165   C     0.98104   0.11866   0.50000   0.00000  Uiso   1.00
C166   C     0.00023   0.14155   0.50000   0.00000  Uiso   1.00
C167   C     0.03055   0.13780   0.50000   0.00000  Uiso   1.00
C168   C     0.04362   0.11096   0.50000   0.00000  Uiso   1.00
O31    O     0.04382   0.16516   0.50000   0.00000  Uiso   1.00
B16    B     0.02132   0.18587   0.50000   0.00000  Uiso   1.00
C169   C     0.02332   0.21895   0.50000   0.00000  Uiso   1.00
C170   C     0.99817   0.23500   0.50000   0.00000  Uiso   1.00
C171   C     0.99817   0.26588   0.50000   0.00000  Uiso   1.00
C172   C     0.02332   0.28192   0.50000   0.00000  Uiso   1.00
C173   C     0.05030   0.26632   0.50000   0.00000  Uiso   1.00
O32    O     0.99415   0.17130   0.50000   0.00000  Uiso   1.00
H44    H     0.95785   0.37947   0.50000   0.00000  Uiso   1.00
H45    H     0.95783   0.12139   0.50000   0.00000  Uiso   1.00
H46    H     0.06681   0.10807   0.50000   0.00000  Uiso   1.00
H47    H     0.97762   0.27718   0.50000   0.00000  Uiso   1.00
H48    H     0.97762   0.22368   0.50000   0.00000  Uiso   1.00
N47    N     0.07619   0.27886   0.50000   0.00000  Uiso   1.00
N48    N     0.07619   0.22202   0.50000   0.00000  Uiso   1.00
S8     S     0.10196   0.25044   0.50000   0.00000  Uiso   1.00
C174   C     0.47300   0.28192   0.50000   0.00000  Uiso   1.00
C175   C     0.44602   0.26633   0.50000   0.00000  Uiso   1.00
C176   C     0.05030   0.23455   0.50000   0.00000  Uiso   1.00
Ni3    Ni    0.49817   0.00042   0.50000   0.00000  Uiso   1.00
Ni4    Ni    0.50024   0.49984   0.50000   0.00000  Uiso   1.00
loop_
_geom_bond_atom_site_label_1
_geom_bond_atom_site_label_2
_geom_bond_distance
_geom_bond_site_symmetry_2
_ccdc_geom_bond_type
N1     C89     1.374   .     S
N1     C92     1.463   .     S
N1     Ni4     1.860   .     S
N2     C92     1.351   .     S
N2     C1      1.347   .     S
C1     C2      1.394   .     S
C1     N37     1.429   .     S
C2     C8      1.407   .     S
C2     C3      1.385   .     S
C3     C4      1.394   .     S
C3     C5      1.415   .     S
C4     N38     1.346   .     S
C4     N37     1.431   .     S
C5     C6      1.416   .     S
C5     H1      1.082   .     S
C6     O2      1.402   .     S
C6     C7      1.387   .     S
C7     C8      1.411   .     S
C7     O1      1.389   .     S
C8     H2      1.082   .     S
O1     B1      1.474   .     S
B1     O2      1.478   .     S
B1     C42     1.609   .     S
N3     C112    1.301   .     S
N3     C9      1.434   .     S
C9     C12     1.408   .     S
C9     N4      1.363   .     S
N4     C10     1.386   .     S
C10    C11     1.383   .     S
C10    N5      1.419   .     S
C11    C16     1.433   .     S
C11    C12     1.378   .     S
C12    C13     1.408   .     S
C13    C14     1.418   .     S
C13    H4      1.082   .     S
C14    O3      1.391   .     S
C14    C15     1.391   .     S
C15    C16     1.414   .     S
C15    O4      1.401   .     S
C16    H3      1.116   .     S
C17    N5      1.326   .     S
C17    C161    1.341   .     S
C18    C161    1.477   .     S
C18    H44     1.144   .     S
C19    C158    1.372   .     S
O3     B2      1.476   .     S
B2     C20     1.611   .     S
B2     O4      1.475   .     S
C20    C21     1.420   .     S
C20    C23     1.409   .     S
C21    N7      1.345   .     S
C21    C43     1.389   .     S
C22    C23     1.407   .     S
C22    H5      1.083   .     S
C22    C42     1.410   .     S
C23    H6      1.083   .     S
N6     C43     1.345   .     S
N6     S1      1.702   .     S
N7     S1      1.704   .     S
C24    C25     1.463   .     S
C24    N8      1.401   .     S
C24    N39     1.448   .     S
C25    C27     1.406   .     S
C26    C27     1.389   .     S
C26    C107    1.372   .     S
C26    O6      1.413   .     S
C27    H7      1.086   .     S
N8     Ni3     1.995   .     S
N9     C28     1.327   .     S
N9     C164    1.285   .     S
C28    C30     1.463   .     S
C28    N10     1.400   .     S
C29    C105    1.341   .     S
C29    C106    1.477   .     S
B3     O6      1.422   .     S
B3     C40     1.540   .     S
C30    C36     1.406   .     S
C31    C32     1.463   .     S
C31    C33     1.406   .     S
C32    N33     1.285   .     S
C33    H9      1.087   .     S
C34    C35     1.420   .     S
C35    C36     1.388   .     S
C35    O7      1.414   .     S
C36    H10     1.086   .     S
O7     B4      1.422   .     S
B4     C37     1.541   .     S
C37    C44     1.449   .     S
C38    C39     1.436   .     S
C38    H12     1.091   .     S
C39    H11     1.090   .     S
C40    C41     1.449   .     S
C41    C44     1.477   .     S
C41    N11     1.337   .     S
H8     C106    1.144   .     S
N11    S2      1.784   .     S
N12    S2      1.784   .     S
N12    C44     1.337   .     S
C42    C43     1.417   .     S
N13    C133    1.374   .     S
N13    C136    1.523   .     S
N13    Ni4     1.848   .     S
N14    C136    1.260   .     S
N14    C45     1.327   .     S
C45    N25     1.374   .     S
C45    C46     1.463   .     S
C46    C47     1.419   .     S
C46    C52     1.405   .     S
C47    C48     1.463   .     S
C47    C49     1.405   .     S
C48    N25     1.523   .     S
C48    N26     1.260   .     S
C49    H13     1.086   .     S
C49    C50     1.388   .     S
C50    C51     1.420   .     S
C50    O10     1.413   .     S
C51    C52     1.389   .     S
C51    O9      1.411   .     S
C52    H14     1.086   .     S
O9     B5      1.434   .     S
B5     C86     1.540   .     S
B5     O10     1.422   .     S
N15    C156    1.448   .     S
N15    C53     1.327   .     S
C53    C56     1.463   .     S
C53    N16     1.400   .     S
N16    C54     1.400   .     S
N16    Ni1     1.977   .     S
C54    C55     1.463   .     S
C54    N17     1.327   .     S
C55    C56     1.418   .     S
C55    C60     1.406   .     S
C56    C57     1.406   .     S
C57    C58     1.388   .     S
C57    H16     1.086   .     S
C58    C59     1.420   .     S
C58    O11     1.411   .     S
C59    O12     1.413   .     S
C59    C60     1.388   .     S
C60    H15     1.086   .     S
C61    N17     1.326   .     S
C61    C117    1.341   .     S
C62    H32     1.144   .     S
C62    C117    1.477   .     S
C63    C114    1.381   .     S
O11    B6      1.433   .     S
B6     C64     1.540   .     S
B6     O12     1.422   .     S
C64    C67     1.387   .     S
C64    C65     1.449   .     S
C65    N19     1.337   .     S
C65    C87     1.478   .     S
C66    H17     1.090   .     S
C66    C86     1.387   .     S
C66    C67     1.436   .     S
C67    H18     1.090   .     S
N18    C87     1.337   .     S
N18    S3      1.784   .     S
N19    S3      1.784   .     S
C68    N20     1.401   .     S
C68    C69     1.463   .     S
C68    N27     1.448   .     S
C69    C71     1.406   .     S
C70    C151    1.372   .     S
C70    C71     1.389   .     S
C70    O14     1.413   .     S
C71    H19     1.086   .     S
N21    C120    1.285   .     S
N21    C72     1.327   .     S
C72    N22     1.400   .     S
C72    C74     1.463   .     S
C73    C150    1.477   .     S
C73    C149    1.341   .     S
B7     C84     1.540   .     S
B7     O14     1.422   .     S
C74    C80     1.406   .     S
C75    C76     1.463   .     S
C75    C77     1.406   .     S
C76    N45     1.285   .     S
C77    H21     1.087   .     S
C78    C79     1.420   .     S
C79    O15     1.414   .     S
C79    C80     1.388   .     S
C80    H22     1.086   .     S
O15    B8      1.422   .     S
B8     C81     1.541   .     S
C81    C88     1.449   .     S
C82    H24     1.091   .     S
C82    C83     1.436   .     S
C83    H23     1.090   .     S
C84    C85     1.449   .     S
C85    N23     1.337   .     S
C85    C88     1.477   .     S
H20    C150    1.144   .     S
N23    S4      1.784   .     S
N24    C88     1.337   .     S
N24    S4      1.784   .     S
C86    C87     1.449   .     S
Ni1    N44     1.924   .     S
Ni2    N46     1.866   .     S
N25    Ni4     1.866   .     S
N26    C89     1.327   .     S
C89    C90     1.463   .     S
C90    C91     1.367   .     S
C90    C96     1.405   .     S
C91    C92     1.410   .     S
C91    C93     1.413   .     S
C93    H25     1.082   .     S
C93    C94     1.419   .     S
C94    C95     1.392   .     S
C94    O18     1.397   .     S
C95    C96     1.403   .     S
C95    O17     1.383   .     S
C96    H26     1.086   .     S
O17    B9      1.467   .     S
B9     O18     1.476   .     S
B9     C130    1.590   .     S
N27    C97     1.327   .     S
C97    C100    1.463   .     S
C97    N28     1.400   .     S
N28    C98     1.400   .     S
C98    C99     1.463   .     S
C98    N29     1.327   .     S
C99    C100    1.418   .     S
C99    C104    1.406   .     S
C100   C101    1.406   .     S
C101   C102    1.388   .     S
C101   H28     1.086   .     S
C102   C103    1.420   .     S
C102   O19     1.411   .     S
C103   C104    1.388   .     S
C103   O20     1.413   .     S
C104   H27     1.086   .     S
C105   N29     1.326   .     S
O19    B10     1.433   .     S
B10    C108    1.589   .     S
B10    O20     1.422   .     S
C108   C111    1.410   .     S
C108   C109    1.406   .     S
C109   N31     1.340   .     S
C109   C131    1.381   .     S
C110   C111    1.405   .     S
C110   H29     1.083   .     S
C110   C130    1.407   .     S
C111   H30     1.083   .     S
N30    C131    1.340   .     S
N30    S5      1.696   .     S
N31    S5      1.695   .     S
C112   C113    1.457   .     S
C112   N32     1.420   .     S
C113   C115    1.407   .     S
C114   C115    1.402   .     S
C114   O22     1.393   .     S
C115   H31     1.082   .     S
N33    C116    1.327   .     S
C116   C118    1.422   .     S
C116   N34     1.400   .     S
B11    C128    1.572   .     S
B11    O22     1.471   .     S
C118   C124    1.405   .     S
C119   C120    1.463   .     S
C119   C121    1.406   .     S
C121   H33     1.087   .     S
C122   C123    1.398   .     S
C123   C124    1.411   .     S
C123   O23     1.398   .     S
C124   H34     1.082   .     S
O23    B12     1.469   .     S
B12    C125    1.593   .     S
C125   C132    1.494   .     S
C126   C127    1.436   .     S
C126   H36     1.091   .     S
C127   H35     1.090   .     S
C128   C129    1.403   .     S
C129   N35     1.289   .     S
C129   C132    1.448   .     S
N35    S6      1.786   .     S
N36    C132    1.287   .     S
N36    S6      1.785   .     S
C130   C131    1.408   .     S
N37    Ni4     1.880   .     S
N38    C133    1.352   .     S
C133   C134    1.463   .     S
C134   C140    1.405   .     S
C134   C135    1.419   .     S
C135   C137    1.405   .     S
C135   C136    1.463   .     S
C137   C138    1.388   .     S
C137   H37     1.086   .     S
C138   C139    1.420   .     S
C138   O26     1.413   .     S
C139   C140    1.389   .     S
C139   O25     1.411   .     S
C140   H38     1.086   .     S
O25    B13     1.434   .     S
B13    O26     1.422   .     S
B13    C174    1.540   .     S
N39    C141    1.327   .     S
C141   C144    1.463   .     S
C141   N40     1.400   .     S
N40    Ni3     1.941   .     S
N40    C142    1.400   .     S
C142   N41     1.327   .     S
C142   C143    1.463   .     S
C143   C148    1.406   .     S
C143   C144    1.418   .     S
C144   C145    1.406   .     S
C145   C146    1.388   .     S
C145   H40     1.086   .     S
C146   O27     1.411   .     S
C146   C147    1.420   .     S
C147   O28     1.413   .     S
C147   C148    1.388   .     S
C148   H39     1.086   .     S
C149   N41     1.326   .     S
O27    B14     1.433   .     S
B14    C152    1.540   .     S
B14    O28     1.422   .     S
C152   C153    1.449   .     S
C152   C155    1.387   .     S
C153   N43     1.337   .     S
C153   C175    1.478   .     S
C154   H41     1.090   .     S
C154   C174    1.387   .     S
C154   C155    1.436   .     S
C155   H42     1.090   .     S
N42    C175    1.337   .     S
N42    S7      1.784   .     S
N43    S7      1.784   .     S
C156   N44     1.401   .     S
C156   C157    1.463   .     S
C157   C159    1.406   .     S
C158   C159    1.389   .     S
C158   O30     1.413   .     S
C159   H43     1.086   .     S
N45    C160    1.327   .     S
C160   N46     1.400   .     S
C160   C162    1.463   .     S
B15    O30     1.422   .     S
B15    C172    1.540   .     S
C162   C168    1.406   .     S
C163   C164    1.463   .     S
C163   C165    1.406   .     S
C165   H45     1.087   .     S
C166   C167    1.420   .     S
C167   O31     1.414   .     S
C167   C168    1.388   .     S
C168   H46     1.086   .     S
O31    B16     1.422   .     S
B16    C169    1.541   .     S
C169   C176    1.449   .     S
C170   H48     1.091   .     S
C170   C171    1.436   .     S
C171   H47     1.090   .     S
C172   C173    1.449   .     S
C173   N47     1.337   .     S
C173   C176    1.477   .     S
N47    S8      1.784   .     S
N48    C176    1.337   .     S
N48    S8      1.784   .     S
C174   C175    1.449   .     S
