data_3D-Py-COF-0P
_audit_creation_date              2016-12-13
_audit_creation_method            'Materials Studio'
_symmetry_space_group_name_H-M    'P1'
_symmetry_Int_Tables_number       1
_symmetry_cell_setting            triclinic
loop_
_symmetry_equiv_pos_as_xyz
  x,y,z
_cell_length_a                    24.8910
_cell_length_b                    27.1822
_cell_length_c                    32.5284
_cell_angle_alpha                 90.0000
_cell_angle_beta                  90.0000
_cell_angle_gamma                 90.0000
loop_
_atom_site_label
_atom_site_type_symbol
_atom_site_fract_x
_atom_site_fract_y
_atom_site_fract_z
_atom_site_U_iso_or_equiv
_atom_site_adp_type
_atom_site_occupancy
H1     H     0.00000   0.27031   0.59142   0.00000  Uiso   1.00
H2     H     0.00000   0.09815   0.63424   0.00000  Uiso   1.00
H3     H     0.00000   0.15841   0.68367   0.00000  Uiso   1.00
H4     H     0.00000   0.25047   0.70592   0.00000  Uiso   1.00
H5     H     0.00000   0.38564   0.62173   0.00000  Uiso   1.00
H6     H     0.00000   0.46506   0.64677   0.00000  Uiso   1.00
H7     H     0.00000   0.41050   0.77194   0.00000  Uiso   1.00
H8     H     0.00000   0.67348   0.74346   0.00000  Uiso   1.00
C1     C     0.00000   0.05365   0.46168   0.00000  Uiso   1.00
C2     C     0.00000   0.10682   0.46066   0.00000  Uiso   1.00
C3     C     0.00000   0.14435   0.42277   0.00000  Uiso   1.00
C4     C     0.00000   0.23195   0.39943   0.00000  Uiso   1.00
C5     C     0.00000   0.21928   0.35813   0.00000  Uiso   1.00
C6     C     0.00000   0.25892   0.32659   0.00000  Uiso   1.00
N1     N     0.00000   0.30399   0.33983   0.00000  Uiso   1.00
C7     C     0.00000   0.35070   0.31968   0.00000  Uiso   1.00
C8     C     0.00000   0.35772   0.27713   0.00000  Uiso   1.00
C9     C     0.00000   0.39133   0.34529   0.00000  Uiso   1.00
C10    C     0.00000   0.40595   0.26114   0.00000  Uiso   1.00
C11    C     0.00000   0.43888   0.32973   0.00000  Uiso   1.00
C12    C     0.00000   0.44836   0.28704   0.00000  Uiso   1.00
C13    C     0.00000   0.80338   0.43014   0.00000  Uiso   1.00
C14    C     0.00000   0.83053   0.34833   0.00000  Uiso   1.00
C15    C     0.00000   0.02524   0.57370   0.00000  Uiso   1.00
H9     H     0.00000   0.21504   0.54087   0.00000  Uiso   1.00
C16    C     0.00000   0.13314   0.37945   0.00000  Uiso   1.00
H10    H     0.00000   0.96060   0.60325   0.00000  Uiso   1.00
H11    H     0.00000   0.72969   0.59142   0.00000  Uiso   1.00
H12    H     0.00000   0.90185   0.63424   0.00000  Uiso   1.00
H13    H     0.00000   0.84159   0.68367   0.00000  Uiso   1.00
H14    H     0.00000   0.74953   0.70592   0.00000  Uiso   1.00
H15    H     0.00000   0.61436   0.62173   0.00000  Uiso   1.00
H16    H     0.00000   0.53494   0.64677   0.00000  Uiso   1.00
H17    H     0.00000   0.58950   0.77194   0.00000  Uiso   1.00
H18    H     0.00000   0.32652   0.74346   0.00000  Uiso   1.00
C17    C     0.00000   0.94635   0.46168   0.00000  Uiso   1.00
C18    C     0.00000   0.89318   0.46066   0.00000  Uiso   1.00
C19    C     0.00000   0.85565   0.42277   0.00000  Uiso   1.00
C20    C     0.00000   0.76805   0.39943   0.00000  Uiso   1.00
C21    C     0.00000   0.78072   0.35813   0.00000  Uiso   1.00
C22    C     0.00000   0.74108   0.32659   0.00000  Uiso   1.00
N2     N     0.00000   0.69601   0.33983   0.00000  Uiso   1.00
C23    C     0.00000   0.64930   0.31968   0.00000  Uiso   1.00
C24    C     0.00000   0.64228   0.27713   0.00000  Uiso   1.00
C25    C     0.00000   0.60867   0.34529   0.00000  Uiso   1.00
C26    C     0.00000   0.59405   0.26114   0.00000  Uiso   1.00
C27    C     0.00000   0.56112   0.32973   0.00000  Uiso   1.00
C28    C     0.00000   0.55164   0.28704   0.00000  Uiso   1.00
C29    C     0.00000   0.19662   0.43014   0.00000  Uiso   1.00
C30    C     0.00000   0.16947   0.34833   0.00000  Uiso   1.00
C31    C     0.00000   0.97476   0.57370   0.00000  Uiso   1.00
H19    H     0.00000   0.78496   0.54087   0.00000  Uiso   1.00
C32    C     0.00000   0.86686   0.37945   0.00000  Uiso   1.00
H20    H     0.00000   0.03940   0.60325   0.00000  Uiso   1.00
H21    H     0.00000   0.27031   0.40858   0.00000  Uiso   1.00
H22    H     0.00000   0.09815   0.36576   0.00000  Uiso   1.00
H23    H     0.00000   0.15841   0.31633   0.00000  Uiso   1.00
H24    H     0.00000   0.25047   0.29408   0.00000  Uiso   1.00
H25    H     0.00000   0.38564   0.37827   0.00000  Uiso   1.00
H26    H     0.00000   0.46506   0.35323   0.00000  Uiso   1.00
H27    H     0.00000   0.41050   0.22806   0.00000  Uiso   1.00
H28    H     0.00000   0.67348   0.25654   0.00000  Uiso   1.00
C33    C     0.00000   0.05365   0.53832   0.00000  Uiso   1.00
C34    C     0.00000   0.10682   0.53934   0.00000  Uiso   1.00
C35    C     0.00000   0.14435   0.57723   0.00000  Uiso   1.00
C36    C     0.00000   0.23195   0.60057   0.00000  Uiso   1.00
C37    C     0.00000   0.21928   0.64187   0.00000  Uiso   1.00
C38    C     0.00000   0.25892   0.67341   0.00000  Uiso   1.00
N3     N     0.00000   0.30399   0.66017   0.00000  Uiso   1.00
C39    C     0.00000   0.35070   0.68032   0.00000  Uiso   1.00
C40    C     0.00000   0.35772   0.72287   0.00000  Uiso   1.00
C41    C     0.00000   0.39133   0.65471   0.00000  Uiso   1.00
C42    C     0.00000   0.40595   0.73886   0.00000  Uiso   1.00
C43    C     0.00000   0.43888   0.67027   0.00000  Uiso   1.00
C44    C     0.00000   0.44836   0.71296   0.00000  Uiso   1.00
C45    C     0.00000   0.80338   0.56986   0.00000  Uiso   1.00
C46    C     0.00000   0.83053   0.65167   0.00000  Uiso   1.00
C47    C     0.00000   0.02524   0.42630   0.00000  Uiso   1.00
H29    H     0.00000   0.21504   0.45913   0.00000  Uiso   1.00
C48    C     0.00000   0.13314   0.62055   0.00000  Uiso   1.00
H30    H     0.00000   0.96060   0.39675   0.00000  Uiso   1.00
H31    H     0.00000   0.72969   0.40858   0.00000  Uiso   1.00
H32    H     0.00000   0.90185   0.36576   0.00000  Uiso   1.00
H33    H     0.00000   0.84159   0.31633   0.00000  Uiso   1.00
H34    H     0.00000   0.74953   0.29408   0.00000  Uiso   1.00
H35    H     0.00000   0.61436   0.37827   0.00000  Uiso   1.00
H36    H     0.00000   0.53494   0.35323   0.00000  Uiso   1.00
H37    H     0.00000   0.58950   0.22806   0.00000  Uiso   1.00
H38    H     0.00000   0.32652   0.25654   0.00000  Uiso   1.00
C49    C     0.00000   0.94635   0.53832   0.00000  Uiso   1.00
C50    C     0.00000   0.89318   0.53934   0.00000  Uiso   1.00
C51    C     0.00000   0.85565   0.57723   0.00000  Uiso   1.00
C52    C     0.00000   0.76805   0.60057   0.00000  Uiso   1.00
C53    C     0.00000   0.78072   0.64187   0.00000  Uiso   1.00
C54    C     0.00000   0.74108   0.67341   0.00000  Uiso   1.00
N4     N     0.00000   0.69601   0.66017   0.00000  Uiso   1.00
C55    C     0.00000   0.64930   0.68032   0.00000  Uiso   1.00
C56    C     0.00000   0.64228   0.72287   0.00000  Uiso   1.00
C57    C     0.00000   0.60867   0.65471   0.00000  Uiso   1.00
C58    C     0.00000   0.59405   0.73886   0.00000  Uiso   1.00
C59    C     0.00000   0.56112   0.67027   0.00000  Uiso   1.00
C60    C     0.00000   0.55164   0.71296   0.00000  Uiso   1.00
C61    C     0.00000   0.19662   0.56986   0.00000  Uiso   1.00
C62    C     0.00000   0.16947   0.65167   0.00000  Uiso   1.00
C63    C     0.00000   0.97476   0.42630   0.00000  Uiso   1.00
H39    H     0.00000   0.78496   0.45913   0.00000  Uiso   1.00
C64    C     0.00000   0.86686   0.62055   0.00000  Uiso   1.00
H40    H     0.00000   0.03940   0.39675   0.00000  Uiso   1.00
H41    H     0.74008   0.50000   0.12539   0.00000  Uiso   1.00
H42    H     0.55707   0.50000   0.18073   0.00000  Uiso   1.00
H43    H     0.62937   0.50000   0.22560   0.00000  Uiso   1.00
H44    H     0.73035   0.50000   0.24082   0.00000  Uiso   1.00
H45    H     0.87393   0.50000   0.15257   0.00000  Uiso   1.00
H46    H     0.96162   0.50000   0.17714   0.00000  Uiso   1.00
H47    H     0.90314   0.50000   0.30259   0.00000  Uiso   1.00
H48    H     0.18849   0.50000   0.27510   0.00000  Uiso   1.00
C65    C     0.54965   0.50000   0.95476   0.00000  Uiso   1.00
C66    C     0.59535   0.50000   0.97895   0.00000  Uiso   1.00
C67    C     0.60145   0.50000   0.87947   0.00000  Uiso   1.00
C68    C     0.69926   0.50000   0.86290   0.00000  Uiso   1.00
C69    C     0.69045   0.50000   0.82079   0.00000  Uiso   1.00
C70    C     0.73680   0.50000   0.79208   0.00000  Uiso   1.00
N5     N     0.78486   0.50000   0.80768   0.00000  Uiso   1.00
C71    C     0.83660   0.50000   0.78847   0.00000  Uiso   1.00
C72    C     0.84505   0.50000   0.74598   0.00000  Uiso   1.00
C73    C     0.88064   0.50000   0.81453   0.00000  Uiso   1.00
C74    C     0.89779   0.50000   0.73046   0.00000  Uiso   1.00
C75    C     0.93291   0.50000   0.79934   0.00000  Uiso   1.00
C76    C     0.94368   0.50000   0.75669   0.00000  Uiso   1.00
C77    C     0.34302   0.50000   0.89093   0.00000  Uiso   1.00
C78    C     0.36237   0.50000   0.80712   0.00000  Uiso   1.00
C79    C     0.55118   0.50000   0.09000   0.00000  Uiso   1.00
H49    H     0.63387   0.50000   0.96794   0.00000  Uiso   1.00
H50    H     0.67439   0.50000   0.07993   0.00000  Uiso   1.00
C80    C     0.40535   0.50000   0.83524   0.00000  Uiso   1.00
H51    H     0.25992   0.50000   0.12539   0.00000  Uiso   1.00
H52    H     0.44293   0.50000   0.18073   0.00000  Uiso   1.00
H53    H     0.37063   0.50000   0.22560   0.00000  Uiso   1.00
H54    H     0.26965   0.50000   0.24082   0.00000  Uiso   1.00
H55    H     0.12607   0.50000   0.15257   0.00000  Uiso   1.00
H56    H     0.03838   0.50000   0.17714   0.00000  Uiso   1.00
H57    H     0.09686   0.50000   0.30259   0.00000  Uiso   1.00
H58    H     0.81151   0.50000   0.27510   0.00000  Uiso   1.00
C81    C     0.45035   0.50000   0.95476   0.00000  Uiso   1.00
C82    C     0.40465   0.50000   0.97895   0.00000  Uiso   1.00
C83    C     0.39855   0.50000   0.87947   0.00000  Uiso   1.00
C84    C     0.30074   0.50000   0.86290   0.00000  Uiso   1.00
C85    C     0.30955   0.50000   0.82079   0.00000  Uiso   1.00
C86    C     0.26320   0.50000   0.79208   0.00000  Uiso   1.00
N6     N     0.21514   0.50000   0.80768   0.00000  Uiso   1.00
C87    C     0.16340   0.50000   0.78847   0.00000  Uiso   1.00
C88    C     0.15495   0.50000   0.74598   0.00000  Uiso   1.00
C89    C     0.11936   0.50000   0.81453   0.00000  Uiso   1.00
C90    C     0.10221   0.50000   0.73046   0.00000  Uiso   1.00
C91    C     0.06709   0.50000   0.79934   0.00000  Uiso   1.00
C92    C     0.05632   0.50000   0.75669   0.00000  Uiso   1.00
C93    C     0.65698   0.50000   0.89093   0.00000  Uiso   1.00
C94    C     0.63763   0.50000   0.80712   0.00000  Uiso   1.00
C95    C     0.44882   0.50000   0.09000   0.00000  Uiso   1.00
H59    H     0.36613   0.50000   0.96794   0.00000  Uiso   1.00
H60    H     0.32561   0.50000   0.07993   0.00000  Uiso   1.00
C96    C     0.59465   0.50000   0.83524   0.00000  Uiso   1.00
H61    H     0.25992   0.50000   0.87461   0.00000  Uiso   1.00
H62    H     0.44293   0.50000   0.81927   0.00000  Uiso   1.00
H63    H     0.37063   0.50000   0.77440   0.00000  Uiso   1.00
H64    H     0.26965   0.50000   0.75918   0.00000  Uiso   1.00
H65    H     0.12607   0.50000   0.84743   0.00000  Uiso   1.00
H66    H     0.03838   0.50000   0.82286   0.00000  Uiso   1.00
H67    H     0.09686   0.50000   0.69741   0.00000  Uiso   1.00
H68    H     0.81151   0.50000   0.72490   0.00000  Uiso   1.00
C97    C     0.45035   0.50000   0.04524   0.00000  Uiso   1.00
C98    C     0.40465   0.50000   0.02105   0.00000  Uiso   1.00
C99    C     0.39855   0.50000   0.12053   0.00000  Uiso   1.00
C100   C     0.30074   0.50000   0.13710   0.00000  Uiso   1.00
C101   C     0.30955   0.50000   0.17921   0.00000  Uiso   1.00
C102   C     0.26320   0.50000   0.20792   0.00000  Uiso   1.00
N7     N     0.21514   0.50000   0.19232   0.00000  Uiso   1.00
C103   C     0.16340   0.50000   0.21153   0.00000  Uiso   1.00
C104   C     0.15495   0.50000   0.25402   0.00000  Uiso   1.00
C105   C     0.11936   0.50000   0.18547   0.00000  Uiso   1.00
C106   C     0.10221   0.50000   0.26954   0.00000  Uiso   1.00
C107   C     0.06709   0.50000   0.20066   0.00000  Uiso   1.00
C108   C     0.05632   0.50000   0.24331   0.00000  Uiso   1.00
C109   C     0.65698   0.50000   0.10907   0.00000  Uiso   1.00
C110   C     0.63763   0.50000   0.19288   0.00000  Uiso   1.00
C111   C     0.44882   0.50000   0.91000   0.00000  Uiso   1.00
H69    H     0.36613   0.50000   0.03206   0.00000  Uiso   1.00
H70    H     0.32561   0.50000   0.92007   0.00000  Uiso   1.00
C112   C     0.59465   0.50000   0.16476   0.00000  Uiso   1.00
H71    H     0.74008   0.50000   0.87461   0.00000  Uiso   1.00
H72    H     0.55707   0.50000   0.81927   0.00000  Uiso   1.00
H73    H     0.62937   0.50000   0.77440   0.00000  Uiso   1.00
H74    H     0.73035   0.50000   0.75918   0.00000  Uiso   1.00
H75    H     0.87393   0.50000   0.84743   0.00000  Uiso   1.00
H76    H     0.96162   0.50000   0.82286   0.00000  Uiso   1.00
H77    H     0.90314   0.50000   0.69741   0.00000  Uiso   1.00
H78    H     0.18849   0.50000   0.72490   0.00000  Uiso   1.00
C113   C     0.54965   0.50000   0.04524   0.00000  Uiso   1.00
C114   C     0.59535   0.50000   0.02105   0.00000  Uiso   1.00
C115   C     0.60145   0.50000   0.12053   0.00000  Uiso   1.00
C116   C     0.69926   0.50000   0.13710   0.00000  Uiso   1.00
C117   C     0.69045   0.50000   0.17921   0.00000  Uiso   1.00
C118   C     0.73680   0.50000   0.20792   0.00000  Uiso   1.00
N8     N     0.78486   0.50000   0.19232   0.00000  Uiso   1.00
C119   C     0.83660   0.50000   0.21153   0.00000  Uiso   1.00
C120   C     0.84505   0.50000   0.25402   0.00000  Uiso   1.00
C121   C     0.88064   0.50000   0.18547   0.00000  Uiso   1.00
C122   C     0.89779   0.50000   0.26954   0.00000  Uiso   1.00
C123   C     0.93291   0.50000   0.20066   0.00000  Uiso   1.00
C124   C     0.94368   0.50000   0.24331   0.00000  Uiso   1.00
C125   C     0.34302   0.50000   0.10907   0.00000  Uiso   1.00
C126   C     0.36237   0.50000   0.19288   0.00000  Uiso   1.00
C127   C     0.55118   0.50000   0.91000   0.00000  Uiso   1.00
H79    H     0.63387   0.50000   0.03206   0.00000  Uiso   1.00
H80    H     0.67439   0.50000   0.92007   0.00000  Uiso   1.00
C128   C     0.40535   0.50000   0.16476   0.00000  Uiso   1.00
C129   C     0.00000   0.50000   0.73489   0.00000  Uiso   1.00
C130   C     0.00000   0.50000   0.26511   0.00000  Uiso   1.00
C131   C     0.50000   0.50000   0.02281   0.00000  Uiso   1.00
C132   C     0.50000   0.50000   0.89126   0.00000  Uiso   1.00
H81    H     0.50000   0.50000   0.85989   0.00000  Uiso   1.00
C133   C     0.50000   0.50000   0.97719   0.00000  Uiso   1.00
C134   C     0.50000   0.50000   0.10874   0.00000  Uiso   1.00
H82    H     0.50000   0.50000   0.14011   0.00000  Uiso   1.00
C135   C     0.00000   0.97299   0.50000   0.00000  Uiso   1.00
C136   C     0.00000   0.87157   0.50000   0.00000  Uiso   1.00
H83    H     0.00000   0.83494   0.50000   0.00000  Uiso   1.00
C137   C     0.00000   0.02701   0.50000   0.00000  Uiso   1.00
C138   C     0.00000   0.12843   0.50000   0.00000  Uiso   1.00
H84    H     0.00000   0.16506   0.50000   0.00000  Uiso   1.00
loop_
_geom_bond_atom_site_label_1
_geom_bond_atom_site_label_2
_geom_bond_distance
_geom_bond_site_symmetry_2
_ccdc_geom_bond_type
H1     C36     1.084   .     S
H2     C48     1.050   .     S
H3     C62     1.083   .     S
H4     C38     1.082   .     S
H5     C41     1.084   .     S
H6     C43     1.044   .     S
H7     C42     1.083   .     S
H8     C56     1.081   .     S
C1     C2      1.446   .     S
C1     C47     1.386   .     S
C1     C137    1.442   .     S
C2     C3      1.600   .     S
C2     C138    1.408   .     S
C3     C29     1.441   .     S
C3     C16     1.442   .     S
C4     C29     1.386   .     S
C4     H21     1.084   .     S
C4     C5      1.387   .     S
C5     C30     1.391   .     S
C5     C6      1.488   .     S
C6     H24     1.082   .     S
C6     N1      1.299   .     S
N1     C7      1.429   .     S
C7     C8      1.397   .     S
C7     C9      1.383   .     S
C8     C10     1.410   .     S
C8     H38     1.081   .     S
C9     C11     1.388   .     S
C9     H25     1.084   .     S
C10    H27     1.083   .     S
C10    C12     1.428   .     S
C11    H26     1.044   .     S
C11    C12     1.412   .     S
C12    C130    1.575   .     S
C13    C19     1.441   .     S
C13    C20     1.386   .     S
C13    H39     1.068   .     S
C14    C32     1.414   .     S
C14    C21     1.391   .     S
C14    H33     1.083   .     S
C15    C33     1.386   .     S
C15    H20     1.035   .     S
H9     C61     1.068   .     S
C16    C30     1.414   .     S
C16    H22     1.050   .     S
H10    C31     1.035   .     S
H11    C52     1.084   .     S
H12    C64     1.050   .     S
H13    C46     1.083   .     S
H14    C54     1.082   .     S
H15    C57     1.084   .     S
H16    C59     1.044   .     S
H17    C58     1.083   .     S
H18    C40     1.081   .     S
C17    C18     1.446   .     S
C17    C63     1.386   .     S
C17    C135    1.442   .     S
C18    C19     1.600   .     S
C18    C136    1.408   .     S
C19    C32     1.442   .     S
C20    H31     1.084   .     S
C20    C21     1.387   .     S
C21    C22     1.488   .     S
C22    H34     1.082   .     S
C22    N2      1.299   .     S
N2     C23     1.429   .     S
C23    C24     1.397   .     S
C23    C25     1.383   .     S
C24    H28     1.081   .     S
C24    C26     1.410   .     S
C25    H35     1.084   .     S
C25    C27     1.388   .     S
C26    H37     1.083   .     S
C26    C28     1.428   .     S
C27    H36     1.044   .     S
C27    C28     1.412   .     S
C28    C130    1.575   .     S
C29    H29     1.068   .     S
C30    H23     1.083   .     S
C31    C49     1.386   .     S
H19    C45     1.068   .     S
C32    H32     1.050   .     S
C33    C137    1.442   .     S
C33    C34     1.446   .     S
C34    C138    1.408   .     S
C34    C35     1.600   .     S
C35    C61     1.441   .     S
C35    C48     1.442   .     S
C36    C37     1.387   .     S
C36    C61     1.386   .     S
C37    C62     1.391   .     S
C37    C38     1.488   .     S
C38    N3      1.299   .     S
N3     C39     1.429   .     S
C39    C41     1.383   .     S
C39    C40     1.397   .     S
C40    C42     1.410   .     S
C41    C43     1.388   .     S
C42    C44     1.428   .     S
C43    C44     1.412   .     S
C44    C129    1.575   .     S
C45    C51     1.441   .     S
C45    C52     1.386   .     S
C46    C64     1.414   .     S
C46    C53     1.391   .     S
C47    H40     1.035   .     S
C48    C62     1.414   .     S
H30    C63     1.035   .     S
C49    C135    1.442   .     S
C49    C50     1.446   .     S
C50    C136    1.408   .     S
C50    C51     1.600   .     S
C51    C64     1.442   .     S
C52    C53     1.387   .     S
C53    C54     1.488   .     S
C54    N4      1.299   .     S
N4     C55     1.429   .     S
C55    C57     1.383   .     S
C55    C56     1.397   .     S
C56    C58     1.410   .     S
C57    C59     1.388   .     S
C58    C60     1.428   .     S
C59    C60     1.412   .     S
C60    C129    1.575   .     S
H41    C116    1.085   .     S
H42    C112    1.070   .     S
H43    C110    1.084   .     S
H44    C118    1.082   .     S
H45    C121    1.083   .     S
H46    C123    1.047   .     S
H47    C122    1.083   .     S
H48    C104    1.080   .     S
C65    C133    1.435   .     S
C65    C66     1.383   .     S
C65    C127    1.456   .     S
C66    H49     1.024   .     S
C67    C127    1.597   .     S
C67    C93     1.432   .     S
C67    C96     1.449   .     S
C68    C69     1.387   .     S
C68    C93     1.392   .     S
C68    H71     1.085   .     S
C69    C94     1.388   .     S
C69    C70     1.484   .     S
C70    N5      1.299   .     S
C70    H74     1.082   .     S
N5     C71     1.431   .     S
C71    C73     1.386   .     S
C71    C72     1.398   .     S
C72    H68     1.080   .     S
C72    C74     1.406   .     S
C73    C75     1.392   .     S
C73    H75     1.083   .     S
C74    C76     1.426   .     S
C74    H77     1.083   .     S
C75    C76     1.413   .     S
C75    H76     1.047   .     S
C77    H70     1.042   .     S
C77    C83     1.432   .     S
C77    C84     1.392   .     S
C78    H63     1.084   .     S
C78    C80     1.408   .     S
C78    C85     1.388   .     S
C79    C134    1.412   .     S
C79    C113    1.456   .     S
C79    C115    1.597   .     S
H50    C109    1.042   .     S
C80    H62     1.070   .     S
C80    C83     1.449   .     S
H51    C100    1.085   .     S
H52    C128    1.070   .     S
H53    C126    1.084   .     S
H54    C102    1.082   .     S
H55    C105    1.083   .     S
H56    C107    1.047   .     S
H57    C106    1.083   .     S
H58    C120    1.080   .     S
C81    C82     1.383   .     S
C81    C133    1.435   .     S
C81    C111    1.456   .     S
C82    H59     1.024   .     S
C83    C111    1.597   .     S
C84    C85     1.387   .     S
C84    H61     1.085   .     S
C85    C86     1.484   .     S
C86    N6      1.299   .     S
C86    H64     1.082   .     S
N6     C87     1.431   .     S
C87    C89     1.386   .     S
C87    C88     1.398   .     S
C88    H78     1.080   .     S
C88    C90     1.406   .     S
C89    C91     1.392   .     S
C89    H65     1.083   .     S
C90    C92     1.426   .     S
C90    H67     1.083   .     S
C91    C92     1.413   .     S
C91    H66     1.047   .     S
C92    C129    1.571   .     S
C93    H80     1.042   .     S
C94    H73     1.084   .     S
C94    C96     1.408   .     S
C95    C134    1.412   .     S
C95    C97     1.456   .     S
C95    C99     1.597   .     S
H60    C125    1.042   .     S
C96    H72     1.070   .     S
C97    C98     1.383   .     S
C97    C131    1.435   .     S
C98    H69     1.024   .     S
C99    C125    1.432   .     S
C99    C128    1.449   .     S
C100   C125    1.392   .     S
C100   C101    1.387   .     S
C101   C102    1.484   .     S
C101   C126    1.388   .     S
C102   N7      1.299   .     S
N7     C103    1.431   .     S
C103   C105    1.386   .     S
C103   C104    1.398   .     S
C104   C106    1.406   .     S
C105   C107    1.392   .     S
C106   C108    1.426   .     S
C107   C108    1.413   .     S
C108   C130    1.571   .     S
C109   C116    1.392   .     S
C109   C115    1.432   .     S
C110   C112    1.408   .     S
C110   C117    1.388   .     S
C111   C132    1.412   .     S
C112   C115    1.449   .     S
C113   C131    1.435   .     S
C113   C114    1.383   .     S
C114   H79     1.024   .     S
C116   C117    1.387   .     S
C117   C118    1.484   .     S
C118   N8      1.299   .     S
N8     C119    1.431   .     S
C119   C121    1.386   .     S
C119   C120    1.398   .     S
C120   C122    1.406   .     S
C121   C123    1.392   .     S
C122   C124    1.426   .     S
C123   C124    1.413   .     S
C126   C128    1.408   .     S
C127   C132    1.412   .     S
C132   H81     1.020   .     S
C134   H82     1.020   .     S
C136   H83     0.996   .     S
C138   H84     0.996   .     S
