data_4PE-TT
_audit_creation_date              2016-12-13
_audit_creation_method            'Materials Studio'
_symmetry_space_group_name_H-M    'P1'
_symmetry_Int_Tables_number       1
_symmetry_cell_setting            triclinic
loop_
_symmetry_equiv_pos_as_xyz
  x,y,z
_cell_length_a                    41.1994
_cell_length_b                    41.1994
_cell_length_c                    4.5828
_cell_angle_alpha                 90.0000
_cell_angle_beta                  90.0000
_cell_angle_gamma                 120.0000
loop_
_atom_site_label
_atom_site_type_symbol
_atom_site_fract_x
_atom_site_fract_y
_atom_site_fract_z
_atom_site_U_iso_or_equiv
_atom_site_adp_type
_atom_site_occupancy
C1     C     0.48283   0.48405   0.51029   0.00000  Uiso   1.00
C2     C     0.44769   0.48463   0.52227   0.00000  Uiso   1.00
C3     C     0.41863   0.46141   0.33396   0.00000  Uiso   1.00
C4     C     0.38599   0.46257   0.32626   0.00000  Uiso   1.00
C5     C     0.38138   0.48685   0.51208   0.00000  Uiso   1.00
C6     C     0.40984   0.50920   0.70908   0.00000  Uiso   1.00
C7     C     0.44240   0.50797   0.71264   0.00000  Uiso   1.00
H1     H     0.46540   0.52621   0.85741   0.00000  Uiso   1.00
C8     C     0.47764   0.44634   0.50266   0.00000  Uiso   1.00
C9     C     0.44884   0.41762   0.66477   0.00000  Uiso   1.00
C10    C     0.44353   0.38195   0.66400   0.00000  Uiso   1.00
C11    C     0.46702   0.37396   0.49751   0.00000  Uiso   1.00
C12    C     0.49485   0.40214   0.32474   0.00000  Uiso   1.00
C13    C     0.50016   0.43756   0.33149   0.00000  Uiso   1.00
N1     N     0.35010   0.49026   0.50772   0.00000  Uiso   1.00
C14    C     0.31779   0.46210   0.45334   0.00000  Uiso   1.00
N2     N     0.46169   0.33844   0.50134   0.00000  Uiso   1.00
C15    C     0.48975   0.33367   0.45864   0.00000  Uiso   1.00
C16    C     0.48485   0.29741   0.44560   0.00000  Uiso   1.00
H2     H     0.42279   0.44301   0.18530   0.00000  Uiso   1.00
H3     H     0.36441   0.44635   0.16345   0.00000  Uiso   1.00
H4     H     0.40507   0.52734   0.85559   0.00000  Uiso   1.00
H5     H     0.43034   0.42386   0.79399   0.00000  Uiso   1.00
H6     H     0.42147   0.35938   0.79197   0.00000  Uiso   1.00
H7     H     0.51111   0.39523   0.17369   0.00000  Uiso   1.00
H8     H     0.52224   0.45961   0.20080   0.00000  Uiso   1.00
H9     H     0.31319   0.43343   0.42717   0.00000  Uiso   1.00
H10    H     0.51875   0.35739   0.44246   0.00000  Uiso   1.00
C17    C     0.51195   0.28727   0.44343   0.00000  Uiso   1.00
C18    C     0.49565   0.24850   0.44385   0.00000  Uiso   1.00
C19    C     0.45639   0.22977   0.44215   0.00000  Uiso   1.00
S1     S     0.43983   0.26018   0.44513   0.00000  Uiso   1.00
C20    C     0.28635   0.46704   0.44274   0.00000  Uiso   1.00
C21    C     0.24907   0.44008   0.43881   0.00000  Uiso   1.00
S2     S     0.29417   0.51209   0.45012   0.00000  Uiso   1.00
H11    H     0.54173   0.30775   0.44500   0.00000  Uiso   1.00
H12    H     0.23935   0.41023   0.43716   0.00000  Uiso   1.00
C22    C     0.51595   0.99878   0.51029   0.00000  Uiso   1.00
C23    C     0.51537   0.96306   0.52227   0.00000  Uiso   1.00
C24    C     0.53859   0.95722   0.33396   0.00000  Uiso   1.00
C25    C     0.53743   0.92342   0.32626   0.00000  Uiso   1.00
C26    C     0.51315   0.89453   0.51208   0.00000  Uiso   1.00
C27    C     0.49080   0.90064   0.70908   0.00000  Uiso   1.00
C28    C     0.49203   0.93443   0.71264   0.00000  Uiso   1.00
H13    H     0.47379   0.93919   0.85741   0.00000  Uiso   1.00
C29    C     0.55366   0.03130   0.50266   0.00000  Uiso   1.00
C30    C     0.58238   0.03122   0.66477   0.00000  Uiso   1.00
C31    C     0.61805   0.06158   0.66400   0.00000  Uiso   1.00
C32    C     0.62604   0.09306   0.49751   0.00000  Uiso   1.00
C33    C     0.59786   0.09271   0.32474   0.00000  Uiso   1.00
C34    C     0.56244   0.06260   0.33149   0.00000  Uiso   1.00
N3     N     0.50974   0.85984   0.50772   0.00000  Uiso   1.00
C35    C     0.53790   0.85569   0.45334   0.00000  Uiso   1.00
N4     N     0.66156   0.12325   0.50134   0.00000  Uiso   1.00
C36    C     0.66633   0.15608   0.45864   0.00000  Uiso   1.00
C37    C     0.70259   0.18744   0.44560   0.00000  Uiso   1.00
H14    H     0.55699   0.97978   0.18530   0.00000  Uiso   1.00
H15    H     0.55365   0.91806   0.16345   0.00000  Uiso   1.00
H16    H     0.47266   0.87773   0.85559   0.00000  Uiso   1.00
H17    H     0.57614   0.00648   0.79399   0.00000  Uiso   1.00
H18    H     0.64062   0.06209   0.79197   0.00000  Uiso   1.00
H19    H     0.60477   0.11588   0.17369   0.00000  Uiso   1.00
H20    H     0.54039   0.06263   0.20080   0.00000  Uiso   1.00
H21    H     0.56657   0.87976   0.42717   0.00000  Uiso   1.00
H22    H     0.64261   0.16136   0.44246   0.00000  Uiso   1.00
C38    C     0.71273   0.22468   0.44343   0.00000  Uiso   1.00
C39    C     0.75150   0.24715   0.44385   0.00000  Uiso   1.00
C40    C     0.77023   0.22662   0.44215   0.00000  Uiso   1.00
S3     S     0.73982   0.17965   0.44513   0.00000  Uiso   1.00
C41    C     0.53296   0.81931   0.44274   0.00000  Uiso   1.00
C42    C     0.55992   0.80899   0.43881   0.00000  Uiso   1.00
S4     S     0.48791   0.78208   0.45012   0.00000  Uiso   1.00
H23    H     0.69225   0.23398   0.44500   0.00000  Uiso   1.00
H24    H     0.58977   0.82912   0.43716   0.00000  Uiso   1.00
C43    C     0.00122   0.51717   0.51029   0.00000  Uiso   1.00
C44    C     0.03694   0.55231   0.52227   0.00000  Uiso   1.00
C45    C     0.04278   0.58137   0.33396   0.00000  Uiso   1.00
C46    C     0.07658   0.61401   0.32626   0.00000  Uiso   1.00
C47    C     0.10547   0.61862   0.51208   0.00000  Uiso   1.00
C48    C     0.09936   0.59016   0.70908   0.00000  Uiso   1.00
C49    C     0.06557   0.55760   0.71264   0.00000  Uiso   1.00
H25    H     0.06081   0.53460   0.85741   0.00000  Uiso   1.00
C50    C     0.96870   0.52236   0.50266   0.00000  Uiso   1.00
C51    C     0.96878   0.55116   0.66477   0.00000  Uiso   1.00
C52    C     0.93842   0.55647   0.66400   0.00000  Uiso   1.00
C53    C     0.90694   0.53298   0.49751   0.00000  Uiso   1.00
C54    C     0.90729   0.50515   0.32474   0.00000  Uiso   1.00
C55    C     0.93740   0.49984   0.33149   0.00000  Uiso   1.00
N5     N     0.14016   0.64990   0.50772   0.00000  Uiso   1.00
C56    C     0.14431   0.68221   0.45334   0.00000  Uiso   1.00
N6     N     0.87675   0.53831   0.50134   0.00000  Uiso   1.00
C57    C     0.84392   0.51025   0.45864   0.00000  Uiso   1.00
C58    C     0.81256   0.51515   0.44560   0.00000  Uiso   1.00
H26    H     0.02022   0.57721   0.18530   0.00000  Uiso   1.00
H27    H     0.08194   0.63559   0.16345   0.00000  Uiso   1.00
H28    H     0.12227   0.59493   0.85559   0.00000  Uiso   1.00
H29    H     0.99352   0.56966   0.79399   0.00000  Uiso   1.00
H30    H     0.93791   0.57853   0.79197   0.00000  Uiso   1.00
H31    H     0.88412   0.48889   0.17369   0.00000  Uiso   1.00
H32    H     0.93737   0.47776   0.20080   0.00000  Uiso   1.00
H33    H     0.12024   0.68681   0.42717   0.00000  Uiso   1.00
H34    H     0.83864   0.48125   0.44246   0.00000  Uiso   1.00
C59    C     0.77532   0.48805   0.44343   0.00000  Uiso   1.00
C60    C     0.75285   0.50435   0.44385   0.00000  Uiso   1.00
C61    C     0.77338   0.54361   0.44215   0.00000  Uiso   1.00
S5     S     0.82035   0.56017   0.44513   0.00000  Uiso   1.00
C62    C     0.18069   0.71365   0.44274   0.00000  Uiso   1.00
C63    C     0.19101   0.75093   0.43881   0.00000  Uiso   1.00
S6     S     0.21792   0.70583   0.45012   0.00000  Uiso   1.00
H35    H     0.76602   0.45827   0.44500   0.00000  Uiso   1.00
H36    H     0.17088   0.76065   0.43716   0.00000  Uiso   1.00
C64    C     0.51717   0.51595   0.51029   0.00000  Uiso   1.00
C65    C     0.55231   0.51537   0.52227   0.00000  Uiso   1.00
C66    C     0.58137   0.53859   0.33396   0.00000  Uiso   1.00
C67    C     0.61401   0.53743   0.32626   0.00000  Uiso   1.00
C68    C     0.61862   0.51315   0.51208   0.00000  Uiso   1.00
C69    C     0.59016   0.49080   0.70908   0.00000  Uiso   1.00
C70    C     0.55760   0.49203   0.71264   0.00000  Uiso   1.00
H37    H     0.53460   0.47379   0.85741   0.00000  Uiso   1.00
C71    C     0.52236   0.55366   0.50266   0.00000  Uiso   1.00
C72    C     0.55116   0.58238   0.66477   0.00000  Uiso   1.00
C73    C     0.55647   0.61805   0.66400   0.00000  Uiso   1.00
C74    C     0.53298   0.62604   0.49751   0.00000  Uiso   1.00
C75    C     0.50515   0.59786   0.32474   0.00000  Uiso   1.00
C76    C     0.49984   0.56244   0.33149   0.00000  Uiso   1.00
N7     N     0.64990   0.50974   0.50772   0.00000  Uiso   1.00
C77    C     0.68221   0.53790   0.45334   0.00000  Uiso   1.00
N8     N     0.53831   0.66156   0.50134   0.00000  Uiso   1.00
C78    C     0.51025   0.66633   0.45864   0.00000  Uiso   1.00
C79    C     0.51515   0.70259   0.44560   0.00000  Uiso   1.00
H38    H     0.57721   0.55699   0.18530   0.00000  Uiso   1.00
H39    H     0.63559   0.55365   0.16345   0.00000  Uiso   1.00
H40    H     0.59493   0.47266   0.85559   0.00000  Uiso   1.00
H41    H     0.56966   0.57614   0.79399   0.00000  Uiso   1.00
H42    H     0.57853   0.64062   0.79197   0.00000  Uiso   1.00
H43    H     0.48889   0.60477   0.17369   0.00000  Uiso   1.00
H44    H     0.47776   0.54039   0.20080   0.00000  Uiso   1.00
H45    H     0.68681   0.56657   0.42717   0.00000  Uiso   1.00
H46    H     0.48125   0.64261   0.44246   0.00000  Uiso   1.00
C80    C     0.48805   0.71273   0.44343   0.00000  Uiso   1.00
C81    C     0.50435   0.75150   0.44385   0.00000  Uiso   1.00
C82    C     0.54361   0.77023   0.44215   0.00000  Uiso   1.00
S7     S     0.56017   0.73982   0.44513   0.00000  Uiso   1.00
C83    C     0.71365   0.53296   0.44274   0.00000  Uiso   1.00
C84    C     0.75093   0.55992   0.43881   0.00000  Uiso   1.00
S8     S     0.70583   0.48791   0.45012   0.00000  Uiso   1.00
H47    H     0.45827   0.69225   0.44500   0.00000  Uiso   1.00
H48    H     0.76065   0.58977   0.43716   0.00000  Uiso   1.00
C85    C     0.48405   0.00122   0.51029   0.00000  Uiso   1.00
C86    C     0.48463   0.03694   0.52227   0.00000  Uiso   1.00
C87    C     0.46141   0.04278   0.33396   0.00000  Uiso   1.00
C88    C     0.46257   0.07658   0.32626   0.00000  Uiso   1.00
C89    C     0.48685   0.10547   0.51208   0.00000  Uiso   1.00
C90    C     0.50920   0.09936   0.70908   0.00000  Uiso   1.00
C91    C     0.50797   0.06557   0.71264   0.00000  Uiso   1.00
H49    H     0.52621   0.06081   0.85741   0.00000  Uiso   1.00
C92    C     0.44634   0.96870   0.50266   0.00000  Uiso   1.00
C93    C     0.41762   0.96878   0.66477   0.00000  Uiso   1.00
C94    C     0.38195   0.93842   0.66400   0.00000  Uiso   1.00
C95    C     0.37396   0.90694   0.49751   0.00000  Uiso   1.00
C96    C     0.40214   0.90729   0.32474   0.00000  Uiso   1.00
C97    C     0.43756   0.93740   0.33149   0.00000  Uiso   1.00
N9     N     0.49026   0.14016   0.50772   0.00000  Uiso   1.00
C98    C     0.46210   0.14431   0.45334   0.00000  Uiso   1.00
N10    N     0.33844   0.87675   0.50134   0.00000  Uiso   1.00
C99    C     0.33367   0.84392   0.45864   0.00000  Uiso   1.00
C100   C     0.29741   0.81256   0.44560   0.00000  Uiso   1.00
H50    H     0.44301   0.02022   0.18530   0.00000  Uiso   1.00
H51    H     0.44635   0.08194   0.16345   0.00000  Uiso   1.00
H52    H     0.52734   0.12227   0.85559   0.00000  Uiso   1.00
H53    H     0.42386   0.99352   0.79399   0.00000  Uiso   1.00
H54    H     0.35938   0.93791   0.79197   0.00000  Uiso   1.00
H55    H     0.39523   0.88412   0.17369   0.00000  Uiso   1.00
H56    H     0.45961   0.93737   0.20080   0.00000  Uiso   1.00
H57    H     0.43343   0.12024   0.42717   0.00000  Uiso   1.00
H58    H     0.35739   0.83864   0.44246   0.00000  Uiso   1.00
C101   C     0.28727   0.77532   0.44343   0.00000  Uiso   1.00
C102   C     0.24850   0.75285   0.44385   0.00000  Uiso   1.00
C103   C     0.22977   0.77338   0.44215   0.00000  Uiso   1.00
S9     S     0.26018   0.82035   0.44513   0.00000  Uiso   1.00
C104   C     0.46704   0.18069   0.44274   0.00000  Uiso   1.00
C105   C     0.44008   0.19101   0.43881   0.00000  Uiso   1.00
S10    S     0.51209   0.21792   0.45012   0.00000  Uiso   1.00
H59    H     0.30775   0.76602   0.44500   0.00000  Uiso   1.00
H60    H     0.41023   0.17088   0.43716   0.00000  Uiso   1.00
C106   C     0.99878   0.48283   0.51029   0.00000  Uiso   1.00
C107   C     0.96306   0.44769   0.52227   0.00000  Uiso   1.00
C108   C     0.95722   0.41863   0.33396   0.00000  Uiso   1.00
C109   C     0.92342   0.38599   0.32626   0.00000  Uiso   1.00
C110   C     0.89453   0.38138   0.51208   0.00000  Uiso   1.00
C111   C     0.90064   0.40984   0.70908   0.00000  Uiso   1.00
C112   C     0.93443   0.44240   0.71264   0.00000  Uiso   1.00
H61    H     0.93919   0.46540   0.85741   0.00000  Uiso   1.00
C113   C     0.03130   0.47764   0.50266   0.00000  Uiso   1.00
C114   C     0.03122   0.44884   0.66477   0.00000  Uiso   1.00
C115   C     0.06158   0.44353   0.66400   0.00000  Uiso   1.00
C116   C     0.09306   0.46702   0.49751   0.00000  Uiso   1.00
C117   C     0.09271   0.49485   0.32474   0.00000  Uiso   1.00
C118   C     0.06260   0.50016   0.33149   0.00000  Uiso   1.00
N11    N     0.85984   0.35010   0.50772   0.00000  Uiso   1.00
C119   C     0.85569   0.31779   0.45334   0.00000  Uiso   1.00
N12    N     0.12325   0.46169   0.50134   0.00000  Uiso   1.00
C120   C     0.15608   0.48975   0.45864   0.00000  Uiso   1.00
C121   C     0.18744   0.48485   0.44560   0.00000  Uiso   1.00
H62    H     0.97978   0.42279   0.18530   0.00000  Uiso   1.00
H63    H     0.91806   0.36441   0.16345   0.00000  Uiso   1.00
H64    H     0.87773   0.40507   0.85559   0.00000  Uiso   1.00
H65    H     0.00648   0.43034   0.79399   0.00000  Uiso   1.00
H66    H     0.06209   0.42147   0.79197   0.00000  Uiso   1.00
H67    H     0.11588   0.51111   0.17369   0.00000  Uiso   1.00
H68    H     0.06263   0.52224   0.20080   0.00000  Uiso   1.00
H69    H     0.87976   0.31319   0.42717   0.00000  Uiso   1.00
H70    H     0.16136   0.51875   0.44246   0.00000  Uiso   1.00
C122   C     0.22468   0.51195   0.44343   0.00000  Uiso   1.00
C123   C     0.24715   0.49565   0.44385   0.00000  Uiso   1.00
C124   C     0.22662   0.45639   0.44215   0.00000  Uiso   1.00
S11    S     0.17965   0.43983   0.44513   0.00000  Uiso   1.00
C125   C     0.81931   0.28635   0.44274   0.00000  Uiso   1.00
C126   C     0.80899   0.24907   0.43881   0.00000  Uiso   1.00
S12    S     0.78208   0.29417   0.45012   0.00000  Uiso   1.00
H71    H     0.23398   0.54173   0.44500   0.00000  Uiso   1.00
H72    H     0.82912   0.23935   0.43716   0.00000  Uiso   1.00
loop_
_geom_bond_atom_site_label_1
_geom_bond_atom_site_label_2
_geom_bond_distance
_geom_bond_site_symmetry_2
_ccdc_geom_bond_type
C1     C64     1.367   .     S
C1     C8      1.459   .     S
C1     C2      1.461   .     S
C2     C7      1.394   .     S
C2     C3      1.396   .     S
C3     H2      1.095   .     S
C3     C4      1.370   .     S
C4     H3      1.095   .     S
C4     C5      1.397   .     S
C5     N1      1.365   .     S
C5     C6      1.399   .     S
C6     H4      1.093   .     S
C6     C7      1.368   .     S
C7     H1      1.091   .     S
C8     C13     1.394   .     S
C8     C9      1.399   .     S
C9     H5      1.093   .     S
C9     C10     1.373   .     S
C10    H6      1.091   .     S
C10    C11     1.395   .     S
C11    C12     1.399   .     S
C11    N2      1.367   .     S
C12    H7      1.095   .     S
C12    C13     1.363   .     S
C13    H8      1.089   .     S
N1     C14     1.279   .     S
C14    H9      1.105   .     S
C14    C20     1.409   .     S
N2     C15     1.281   .     S
C15    C16     1.405   .     S
C15    H10     1.105   .     S
C16    C17     1.374   .     S
C16    S1      1.717   .     S
C17    H11     1.087   .     S
C17    C18     1.389   .     S
C18    S10     1.703   .     S
C18    C19     1.401   .     S
C19    S1      1.700   .     S
C19    C105    1.389   .     S
C20    C21     1.374   .     S
C20    S2      1.718   .     S
C21    H12     1.086   .     S
C21    C124    1.389   .     S
S2     C123    1.703   .     S
C22    C23     1.461   .     S
C23    C28     1.394   .     S
C23    C24     1.396   .     S
C24    H14     1.095   .     S
C24    C25     1.370   .     S
C25    C26     1.397   .     S
C25    H15     1.095   .     S
C26    N3      1.365   .     S
C26    C27     1.399   .     S
C27    C28     1.368   .     S
C27    H16     1.093   .     S
C28    H13     1.091   .     S
C29    C34     1.394   .     S
C29    C30     1.399   .     S
C30    H17     1.093   .     S
C30    C31     1.373   .     S
C31    H18     1.091   .     S
C31    C32     1.395   .     S
C32    C33     1.399   .     S
C32    N4      1.367   .     S
C33    H19     1.095   .     S
C33    C34     1.363   .     S
C34    H20     1.089   .     S
N3     C35     1.279   .     S
C35    C41     1.409   .     S
C35    H21     1.105   .     S
N4     C36     1.281   .     S
C36    C37     1.405   .     S
C36    H22     1.105   .     S
C37    S3      1.717   .     S
C37    C38     1.374   .     S
C38    C39     1.389   .     S
C38    H23     1.087   .     S
C39    C40     1.401   .     S
C39    S12     1.703   .     S
C40    C126    1.389   .     S
C40    S3      1.700   .     S
C41    C42     1.374   .     S
C41    S4      1.718   .     S
C42    H24     1.086   .     S
C42    C82     1.389   .     S
S4     C81     1.703   .     S
C43    C44     1.461   .     S
C44    C49     1.394   .     S
C44    C45     1.396   .     S
C45    H26     1.095   .     S
C45    C46     1.370   .     S
C46    C47     1.397   .     S
C46    H27     1.095   .     S
C47    N5      1.365   .     S
C47    C48     1.399   .     S
C48    C49     1.368   .     S
C48    H28     1.093   .     S
C49    H25     1.091   .     S
C50    C55     1.394   .     S
C50    C51     1.399   .     S
C51    C52     1.373   .     S
C51    H29     1.093   .     S
C52    H30     1.091   .     S
C52    C53     1.395   .     S
C53    C54     1.399   .     S
C53    N6      1.367   .     S
C54    C55     1.363   .     S
C54    H31     1.095   .     S
C55    H32     1.089   .     S
N5     C56     1.279   .     S
C56    H33     1.105   .     S
C56    C62     1.409   .     S
N6     C57     1.281   .     S
C57    H34     1.105   .     S
C57    C58     1.405   .     S
C58    C59     1.374   .     S
C58    S5      1.717   .     S
C59    C60     1.389   .     S
C59    H35     1.087   .     S
C60    S8      1.703   .     S
C60    C61     1.401   .     S
C61    C84     1.389   .     S
C61    S5      1.700   .     S
C62    S6      1.718   .     S
C62    C63     1.374   .     S
C63    H36     1.086   .     S
C63    C103    1.389   .     S
S6     C102    1.703   .     S
C64    C71     1.459   .     S
C64    C65     1.461   .     S
C65    C70     1.394   .     S
C65    C66     1.396   .     S
C66    C67     1.370   .     S
C66    H38     1.095   .     S
C67    H39     1.095   .     S
C67    C68     1.397   .     S
C68    N7      1.365   .     S
C68    C69     1.399   .     S
C69    C70     1.368   .     S
C69    H40     1.093   .     S
C70    H37     1.091   .     S
C71    C76     1.394   .     S
C71    C72     1.399   .     S
C72    H41     1.093   .     S
C72    C73     1.373   .     S
C73    H42     1.091   .     S
C73    C74     1.395   .     S
C74    N8      1.367   .     S
C74    C75     1.399   .     S
C75    C76     1.363   .     S
C75    H43     1.095   .     S
C76    H44     1.089   .     S
N7     C77     1.279   .     S
C77    H45     1.105   .     S
C77    C83     1.409   .     S
N8     C78     1.281   .     S
C78    H46     1.105   .     S
C78    C79     1.405   .     S
C79    C80     1.374   .     S
C79    S7      1.717   .     S
C80    H47     1.087   .     S
C80    C81     1.389   .     S
C81    C82     1.401   .     S
C82    S7      1.700   .     S
C83    S8      1.718   .     S
C83    C84     1.374   .     S
C84    H48     1.086   .     S
C85    C86     1.461   .     S
C86    C91     1.394   .     S
C86    C87     1.396   .     S
C87    H50     1.095   .     S
C87    C88     1.370   .     S
C88    C89     1.397   .     S
C88    H51     1.095   .     S
C89    N9      1.365   .     S
C89    C90     1.399   .     S
C90    H52     1.093   .     S
C90    C91     1.368   .     S
C91    H49     1.091   .     S
C92    C97     1.394   .     S
C92    C93     1.399   .     S
C93    H53     1.093   .     S
C93    C94     1.373   .     S
C94    H54     1.091   .     S
C94    C95     1.395   .     S
C95    N10     1.367   .     S
C95    C96     1.399   .     S
C96    C97     1.363   .     S
C96    H55     1.095   .     S
C97    H56     1.089   .     S
N9     C98     1.279   .     S
C98    C104    1.409   .     S
C98    H57     1.105   .     S
N10    C99     1.281   .     S
C99    C100    1.405   .     S
C99    H58     1.105   .     S
C100   S9      1.717   .     S
C100   C101    1.374   .     S
C101   H59     1.087   .     S
C101   C102    1.389   .     S
C102   C103    1.401   .     S
C103   S9      1.700   .     S
C104   C105    1.374   .     S
C104   S10     1.718   .     S
C105   H60     1.086   .     S
C106   C107    1.461   .     S
C107   C112    1.394   .     S
C107   C108    1.396   .     S
C108   H62     1.095   .     S
C108   C109    1.370   .     S
C109   C110    1.397   .     S
C109   H63     1.095   .     S
C110   N11     1.365   .     S
C110   C111    1.399   .     S
C111   H64     1.093   .     S
C111   C112    1.368   .     S
C112   H61     1.091   .     S
C113   C118    1.394   .     S
C113   C114    1.399   .     S
C114   H65     1.093   .     S
C114   C115    1.373   .     S
C115   H66     1.091   .     S
C115   C116    1.395   .     S
C116   N12     1.367   .     S
C116   C117    1.399   .     S
C117   H67     1.095   .     S
C117   C118    1.363   .     S
C118   H68     1.089   .     S
N11    C119    1.279   .     S
C119   H69     1.105   .     S
C119   C125    1.409   .     S
N12    C120    1.281   .     S
C120   H70     1.105   .     S
C120   C121    1.405   .     S
C121   C122    1.374   .     S
C121   S11     1.717   .     S
C122   C123    1.389   .     S
C122   H71     1.087   .     S
C123   C124    1.401   .     S
C124   S11     1.700   .     S
C125   S12     1.718   .     S
C125   C126    1.374   .     S
C126   H72     1.086   .     S
