data_4PE-1P
_audit_creation_date              2016-12-13
_audit_creation_method            'Materials Studio'
_symmetry_space_group_name_H-M    'P1'
_symmetry_Int_Tables_number       1
_symmetry_cell_setting            triclinic
loop_
_symmetry_equiv_pos_as_xyz
  x,y,z
_cell_length_a                    37.5387
_cell_length_b                    37.5387
_cell_length_c                    4.6000
_cell_angle_alpha                 90.0000
_cell_angle_beta                  90.0000
_cell_angle_gamma                 120.0000
loop_
_atom_site_label
_atom_site_type_symbol
_atom_site_fract_x
_atom_site_fract_y
_atom_site_fract_z
_atom_site_U_iso_or_equiv
_atom_site_adp_type
_atom_site_occupancy
C1     C     0.48119   0.48264   0.50353   0.00000  Uiso   1.00
C2     C     0.44323   0.48398   0.51924   0.00000  Uiso   1.00
C3     C     0.41075   0.45921   0.33080   0.00000  Uiso   1.00
C4     C     0.37491   0.46025   0.34184   0.00000  Uiso   1.00
C5     C     0.37047   0.48528   0.55114   0.00000  Uiso   1.00
C6     C     0.40275   0.50970   0.74198   0.00000  Uiso   1.00
C7     C     0.43856   0.50869   0.72580   0.00000  Uiso   1.00
H1     H     0.46452   0.52740   0.87114   0.00000  Uiso   1.00
C8     C     0.47416   0.44090   0.49302   0.00000  Uiso   1.00
C9     C     0.43946   0.40955   0.63470   0.00000  Uiso   1.00
C10    C     0.42982   0.36929   0.61627   0.00000  Uiso   1.00
C11    C     0.45556   0.35952   0.45853   0.00000  Uiso   1.00
C12    C     0.49039   0.39044   0.31750   0.00000  Uiso   1.00
C13    C     0.49937   0.43040   0.33441   0.00000  Uiso   1.00
N1     N     0.33580   0.48817   0.56396   0.00000  Uiso   1.00
C14    C     0.30116   0.45788   0.48662   0.00000  Uiso   1.00
C15    C     0.26637   0.46321   0.45491   0.00000  Uiso   1.00
C16    C     0.22813   0.42995   0.38412   0.00000  Uiso   1.00
C17    C     0.27128   0.50193   0.50792   0.00000  Uiso   1.00
N2     N     0.44722   0.31976   0.44920   0.00000  Uiso   1.00
C18    C     0.47738   0.31362   0.48766   0.00000  Uiso   1.00
C19    C     0.47299   0.27394   0.45342   0.00000  Uiso   1.00
C20    C     0.50681   0.26916   0.50814   0.00000  Uiso   1.00
C21    C     0.43487   0.24045   0.38233   0.00000  Uiso   1.00
H2     H     0.41499   0.44006   0.16800   0.00000  Uiso   1.00
H3     H     0.35046   0.44322   0.18053   0.00000  Uiso   1.00
H4     H     0.39817   0.52852   0.90534   0.00000  Uiso   1.00
H5     H     0.41990   0.41757   0.76433   0.00000  Uiso   1.00
H6     H     0.40328   0.34503   0.73185   0.00000  Uiso   1.00
H7     H     0.50941   0.38198   0.18512   0.00000  Uiso   1.00
H8     H     0.52673   0.45440   0.22565   0.00000  Uiso   1.00
H9     H     0.29666   0.42693   0.43990   0.00000  Uiso   1.00
H10    H     0.22558   0.40035   0.33361   0.00000  Uiso   1.00
H11    H     0.30208   0.52654   0.56267   0.00000  Uiso   1.00
H12    H     0.50803   0.33908   0.55379   0.00000  Uiso   1.00
H13    H     0.53630   0.29614   0.56261   0.00000  Uiso   1.00
H14    H     0.40993   0.24639   0.33293   0.00000  Uiso   1.00
C22    C     0.51736   0.99855   0.50353   0.00000  Uiso   1.00
C23    C     0.51602   0.95925   0.51924   0.00000  Uiso   1.00
C24    C     0.54079   0.95154   0.33080   0.00000  Uiso   1.00
C25    C     0.53975   0.91466   0.34184   0.00000  Uiso   1.00
C26    C     0.51472   0.88519   0.55114   0.00000  Uiso   1.00
C27    C     0.49030   0.89305   0.74198   0.00000  Uiso   1.00
C28    C     0.49131   0.92987   0.72580   0.00000  Uiso   1.00
H15    H     0.47260   0.93712   0.87114   0.00000  Uiso   1.00
C29    C     0.55910   0.03326   0.49302   0.00000  Uiso   1.00
C30    C     0.59045   0.02991   0.63470   0.00000  Uiso   1.00
C31    C     0.63071   0.06053   0.61627   0.00000  Uiso   1.00
C32    C     0.64048   0.09604   0.45853   0.00000  Uiso   1.00
C33    C     0.60956   0.09995   0.31750   0.00000  Uiso   1.00
C34    C     0.56960   0.06897   0.33441   0.00000  Uiso   1.00
N3     N     0.51183   0.84763   0.56396   0.00000  Uiso   1.00
C35    C     0.54212   0.84328   0.48662   0.00000  Uiso   1.00
C36    C     0.53679   0.80316   0.45491   0.00000  Uiso   1.00
C37    C     0.57005   0.79818   0.38412   0.00000  Uiso   1.00
C38    C     0.49807   0.76935   0.50792   0.00000  Uiso   1.00
N4     N     0.68024   0.12746   0.44920   0.00000  Uiso   1.00
C39    C     0.68638   0.16376   0.48766   0.00000  Uiso   1.00
C40    C     0.72606   0.19905   0.45342   0.00000  Uiso   1.00
C41    C     0.73084   0.23765   0.50814   0.00000  Uiso   1.00
C42    C     0.75955   0.19442   0.38233   0.00000  Uiso   1.00
H16    H     0.55994   0.97493   0.16800   0.00000  Uiso   1.00
H17    H     0.55678   0.90724   0.18053   0.00000  Uiso   1.00
H18    H     0.47148   0.86965   0.90534   0.00000  Uiso   1.00
H19    H     0.58243   0.00233   0.76433   0.00000  Uiso   1.00
H20    H     0.65497   0.05825   0.73185   0.00000  Uiso   1.00
H21    H     0.61802   0.12743   0.18512   0.00000  Uiso   1.00
H22    H     0.54560   0.07233   0.22565   0.00000  Uiso   1.00
H23    H     0.57307   0.86973   0.43990   0.00000  Uiso   1.00
H24    H     0.59965   0.82523   0.33361   0.00000  Uiso   1.00
H25    H     0.47346   0.77554   0.56267   0.00000  Uiso   1.00
H26    H     0.66092   0.16895   0.55379   0.00000  Uiso   1.00
H27    H     0.70386   0.24016   0.56261   0.00000  Uiso   1.00
H28    H     0.75361   0.16354   0.33293   0.00000  Uiso   1.00
C43    C     0.00145   0.51881   0.50353   0.00000  Uiso   1.00
C44    C     0.04075   0.55677   0.51924   0.00000  Uiso   1.00
C45    C     0.04846   0.58925   0.33080   0.00000  Uiso   1.00
C46    C     0.08534   0.62509   0.34184   0.00000  Uiso   1.00
C47    C     0.11481   0.62953   0.55114   0.00000  Uiso   1.00
C48    C     0.10695   0.59725   0.74198   0.00000  Uiso   1.00
C49    C     0.07013   0.56144   0.72580   0.00000  Uiso   1.00
H29    H     0.06288   0.53548   0.87114   0.00000  Uiso   1.00
C50    C     0.96674   0.52584   0.49302   0.00000  Uiso   1.00
C51    C     0.97009   0.56054   0.63470   0.00000  Uiso   1.00
C52    C     0.93947   0.57018   0.61627   0.00000  Uiso   1.00
C53    C     0.90396   0.54444   0.45853   0.00000  Uiso   1.00
C54    C     0.90005   0.50961   0.31750   0.00000  Uiso   1.00
C55    C     0.93103   0.50063   0.33441   0.00000  Uiso   1.00
N5     N     0.15237   0.66420   0.56396   0.00000  Uiso   1.00
C56    C     0.15672   0.69884   0.48662   0.00000  Uiso   1.00
C57    C     0.19684   0.73363   0.45491   0.00000  Uiso   1.00
C58    C     0.20182   0.77187   0.38412   0.00000  Uiso   1.00
C59    C     0.23065   0.72872   0.50792   0.00000  Uiso   1.00
N6     N     0.87254   0.55278   0.44920   0.00000  Uiso   1.00
C60    C     0.83624   0.52262   0.48766   0.00000  Uiso   1.00
C61    C     0.80095   0.52701   0.45342   0.00000  Uiso   1.00
C62    C     0.76235   0.49319   0.50814   0.00000  Uiso   1.00
C63    C     0.80558   0.56513   0.38233   0.00000  Uiso   1.00
H30    H     0.02507   0.58501   0.16800   0.00000  Uiso   1.00
H31    H     0.09276   0.64954   0.18053   0.00000  Uiso   1.00
H32    H     0.13035   0.60183   0.90534   0.00000  Uiso   1.00
H33    H     0.99767   0.58010   0.76433   0.00000  Uiso   1.00
H34    H     0.94175   0.59672   0.73185   0.00000  Uiso   1.00
H35    H     0.87257   0.49059   0.18512   0.00000  Uiso   1.00
H36    H     0.92767   0.47327   0.22565   0.00000  Uiso   1.00
H37    H     0.13027   0.70334   0.43990   0.00000  Uiso   1.00
H38    H     0.17477   0.77442   0.33361   0.00000  Uiso   1.00
H39    H     0.22446   0.69792   0.56267   0.00000  Uiso   1.00
H40    H     0.83105   0.49197   0.55379   0.00000  Uiso   1.00
H41    H     0.75984   0.46370   0.56261   0.00000  Uiso   1.00
H42    H     0.83646   0.59007   0.33293   0.00000  Uiso   1.00
C64    C     0.51881   0.51736   0.50353   0.00000  Uiso   1.00
C65    C     0.55677   0.51602   0.51924   0.00000  Uiso   1.00
C66    C     0.58925   0.54079   0.33080   0.00000  Uiso   1.00
C67    C     0.62509   0.53975   0.34184   0.00000  Uiso   1.00
C68    C     0.62953   0.51472   0.55114   0.00000  Uiso   1.00
C69    C     0.59725   0.49030   0.74198   0.00000  Uiso   1.00
C70    C     0.56144   0.49131   0.72580   0.00000  Uiso   1.00
H43    H     0.53548   0.47260   0.87114   0.00000  Uiso   1.00
C71    C     0.52584   0.55910   0.49302   0.00000  Uiso   1.00
C72    C     0.56054   0.59045   0.63470   0.00000  Uiso   1.00
C73    C     0.57018   0.63071   0.61627   0.00000  Uiso   1.00
C74    C     0.54444   0.64048   0.45853   0.00000  Uiso   1.00
C75    C     0.50961   0.60956   0.31750   0.00000  Uiso   1.00
C76    C     0.50063   0.56960   0.33441   0.00000  Uiso   1.00
N7     N     0.66420   0.51183   0.56396   0.00000  Uiso   1.00
C77    C     0.69884   0.54212   0.48662   0.00000  Uiso   1.00
C78    C     0.73363   0.53679   0.45491   0.00000  Uiso   1.00
C79    C     0.77187   0.57005   0.38412   0.00000  Uiso   1.00
C80    C     0.72872   0.49807   0.50792   0.00000  Uiso   1.00
N8     N     0.55278   0.68024   0.44920   0.00000  Uiso   1.00
C81    C     0.52262   0.68638   0.48766   0.00000  Uiso   1.00
C82    C     0.52701   0.72606   0.45342   0.00000  Uiso   1.00
C83    C     0.49319   0.73084   0.50814   0.00000  Uiso   1.00
C84    C     0.56513   0.75955   0.38233   0.00000  Uiso   1.00
H44    H     0.58501   0.55994   0.16800   0.00000  Uiso   1.00
H45    H     0.64954   0.55678   0.18053   0.00000  Uiso   1.00
H46    H     0.60183   0.47148   0.90534   0.00000  Uiso   1.00
H47    H     0.58010   0.58243   0.76433   0.00000  Uiso   1.00
H48    H     0.59672   0.65497   0.73185   0.00000  Uiso   1.00
H49    H     0.49059   0.61802   0.18512   0.00000  Uiso   1.00
H50    H     0.47327   0.54560   0.22565   0.00000  Uiso   1.00
H51    H     0.70334   0.57307   0.43990   0.00000  Uiso   1.00
H52    H     0.77442   0.59965   0.33361   0.00000  Uiso   1.00
H53    H     0.69792   0.47346   0.56267   0.00000  Uiso   1.00
H54    H     0.49197   0.66092   0.55379   0.00000  Uiso   1.00
H55    H     0.46370   0.70386   0.56261   0.00000  Uiso   1.00
H56    H     0.59007   0.75361   0.33293   0.00000  Uiso   1.00
C85    C     0.48264   0.00145   0.50353   0.00000  Uiso   1.00
C86    C     0.48398   0.04075   0.51924   0.00000  Uiso   1.00
C87    C     0.45921   0.04846   0.33080   0.00000  Uiso   1.00
C88    C     0.46025   0.08534   0.34184   0.00000  Uiso   1.00
C89    C     0.48528   0.11481   0.55114   0.00000  Uiso   1.00
C90    C     0.50970   0.10695   0.74198   0.00000  Uiso   1.00
C91    C     0.50869   0.07013   0.72580   0.00000  Uiso   1.00
H57    H     0.52740   0.06288   0.87114   0.00000  Uiso   1.00
C92    C     0.44090   0.96674   0.49302   0.00000  Uiso   1.00
C93    C     0.40955   0.97009   0.63470   0.00000  Uiso   1.00
C94    C     0.36929   0.93947   0.61627   0.00000  Uiso   1.00
C95    C     0.35952   0.90396   0.45853   0.00000  Uiso   1.00
C96    C     0.39044   0.90005   0.31750   0.00000  Uiso   1.00
C97    C     0.43040   0.93103   0.33441   0.00000  Uiso   1.00
N9     N     0.48817   0.15237   0.56396   0.00000  Uiso   1.00
C98    C     0.45788   0.15672   0.48662   0.00000  Uiso   1.00
C99    C     0.46321   0.19684   0.45491   0.00000  Uiso   1.00
C100   C     0.42995   0.20182   0.38412   0.00000  Uiso   1.00
C101   C     0.50193   0.23065   0.50792   0.00000  Uiso   1.00
N10    N     0.31976   0.87254   0.44920   0.00000  Uiso   1.00
C102   C     0.31362   0.83624   0.48766   0.00000  Uiso   1.00
C103   C     0.27394   0.80095   0.45342   0.00000  Uiso   1.00
C104   C     0.26916   0.76235   0.50814   0.00000  Uiso   1.00
C105   C     0.24045   0.80558   0.38233   0.00000  Uiso   1.00
H58    H     0.44006   0.02507   0.16800   0.00000  Uiso   1.00
H59    H     0.44322   0.09276   0.18053   0.00000  Uiso   1.00
H60    H     0.52852   0.13035   0.90534   0.00000  Uiso   1.00
H61    H     0.41757   0.99767   0.76433   0.00000  Uiso   1.00
H62    H     0.34503   0.94175   0.73185   0.00000  Uiso   1.00
H63    H     0.38198   0.87257   0.18512   0.00000  Uiso   1.00
H64    H     0.45440   0.92767   0.22565   0.00000  Uiso   1.00
H65    H     0.42693   0.13027   0.43990   0.00000  Uiso   1.00
H66    H     0.40035   0.17477   0.33361   0.00000  Uiso   1.00
H67    H     0.52654   0.22446   0.56267   0.00000  Uiso   1.00
H68    H     0.33908   0.83105   0.55379   0.00000  Uiso   1.00
H69    H     0.29614   0.75984   0.56261   0.00000  Uiso   1.00
H70    H     0.24639   0.83646   0.33293   0.00000  Uiso   1.00
C106   C     0.99855   0.48119   0.50353   0.00000  Uiso   1.00
C107   C     0.95925   0.44323   0.51924   0.00000  Uiso   1.00
C108   C     0.95154   0.41075   0.33080   0.00000  Uiso   1.00
C109   C     0.91466   0.37491   0.34184   0.00000  Uiso   1.00
C110   C     0.88519   0.37047   0.55114   0.00000  Uiso   1.00
C111   C     0.89305   0.40275   0.74198   0.00000  Uiso   1.00
C112   C     0.92987   0.43856   0.72580   0.00000  Uiso   1.00
H71    H     0.93712   0.46452   0.87114   0.00000  Uiso   1.00
C113   C     0.03326   0.47416   0.49302   0.00000  Uiso   1.00
C114   C     0.02991   0.43946   0.63470   0.00000  Uiso   1.00
C115   C     0.06053   0.42982   0.61627   0.00000  Uiso   1.00
C116   C     0.09604   0.45556   0.45853   0.00000  Uiso   1.00
C117   C     0.09995   0.49039   0.31750   0.00000  Uiso   1.00
C118   C     0.06897   0.49937   0.33441   0.00000  Uiso   1.00
N11    N     0.84763   0.33580   0.56396   0.00000  Uiso   1.00
C119   C     0.84328   0.30116   0.48662   0.00000  Uiso   1.00
C120   C     0.80316   0.26637   0.45491   0.00000  Uiso   1.00
C121   C     0.79818   0.22813   0.38412   0.00000  Uiso   1.00
C122   C     0.76935   0.27128   0.50792   0.00000  Uiso   1.00
N12    N     0.12746   0.44722   0.44920   0.00000  Uiso   1.00
C123   C     0.16376   0.47738   0.48766   0.00000  Uiso   1.00
C124   C     0.19905   0.47299   0.45342   0.00000  Uiso   1.00
C125   C     0.23765   0.50681   0.50814   0.00000  Uiso   1.00
C126   C     0.19442   0.43487   0.38233   0.00000  Uiso   1.00
H72    H     0.97493   0.41499   0.16800   0.00000  Uiso   1.00
H73    H     0.90724   0.35046   0.18053   0.00000  Uiso   1.00
H74    H     0.86965   0.39817   0.90534   0.00000  Uiso   1.00
H75    H     0.00233   0.41990   0.76433   0.00000  Uiso   1.00
H76    H     0.05825   0.40328   0.73185   0.00000  Uiso   1.00
H77    H     0.12743   0.50941   0.18512   0.00000  Uiso   1.00
H78    H     0.07233   0.52673   0.22565   0.00000  Uiso   1.00
H79    H     0.86973   0.29666   0.43990   0.00000  Uiso   1.00
H80    H     0.82523   0.22558   0.33361   0.00000  Uiso   1.00
H81    H     0.77554   0.30208   0.56267   0.00000  Uiso   1.00
H82    H     0.16895   0.50803   0.55379   0.00000  Uiso   1.00
H83    H     0.24016   0.53630   0.56261   0.00000  Uiso   1.00
H84    H     0.16354   0.40993   0.33293   0.00000  Uiso   1.00
loop_
_geom_bond_atom_site_label_1
_geom_bond_atom_site_label_2
_geom_bond_distance
_geom_bond_site_symmetry_2
_ccdc_geom_bond_type
C1     C8      1.454   .     S
C1     C2      1.453   .     S
C1     C64     1.361   .     S
C2     C7      1.399   .     S
C2     C3      1.403   .     S
C3     C4      1.366   .     S
C3     H2      1.103   .     S
C4     H3      1.102   .     S
C4     C5      1.412   .     S
C5     N1      1.360   .     S
C5     C6      1.403   .     S
C6     C7      1.366   .     S
C6     H4      1.102   .     S
C7     H1      1.098   .     S
C8     C9      1.405   .     S
C8     C13     1.399   .     S
C9     H5      1.098   .     S
C9     C10     1.369   .     S
C10    C11     1.396   .     S
C10    H6      1.094   .     S
C11    N2      1.364   .     S
C11    C12     1.400   .     S
C12    C13     1.365   .     S
C12    H7      1.099   .     S
C13    H8      1.092   .     S
N1     C14     1.277   .     S
C14    C15     1.424   .     S
C14    H9      1.108   .     S
C15    C17     1.392   .     S
C15    C16     1.390   .     S
C16    H10     1.092   .     S
C16    C126    1.367   .     S
C17    H11     1.089   .     S
C17    C125    1.363   .     S
N2     C18     1.276   .     S
C18    C19     1.423   .     S
C18    H12     1.109   .     S
C19    C20     1.391   .     S
C19    C21     1.391   .     S
C20    C101    1.363   .     S
C20    H13     1.092   .     S
C21    H14     1.089   .     S
C21    C100    1.367   .     S
C22    C23     1.453   .     S
C23    C28     1.399   .     S
C23    C24     1.403   .     S
C24    H16     1.103   .     S
C24    C25     1.366   .     S
C25    H17     1.102   .     S
C25    C26     1.412   .     S
C26    C27     1.403   .     S
C26    N3      1.360   .     S
C27    C28     1.366   .     S
C27    H18     1.102   .     S
C28    H15     1.098   .     S
C29    C30     1.405   .     S
C29    C34     1.399   .     S
C30    H19     1.098   .     S
C30    C31     1.369   .     S
C31    C32     1.396   .     S
C31    H20     1.094   .     S
C32    N4      1.364   .     S
C32    C33     1.400   .     S
C33    C34     1.365   .     S
C33    H21     1.099   .     S
C34    H22     1.092   .     S
N3     C35     1.277   .     S
C35    H23     1.108   .     S
C35    C36     1.424   .     S
C36    C38     1.392   .     S
C36    C37     1.390   .     S
C37    H24     1.092   .     S
C37    C84     1.367   .     S
C38    H25     1.089   .     S
C38    C83     1.363   .     S
N4     C39     1.276   .     S
C39    H26     1.109   .     S
C39    C40     1.423   .     S
C40    C41     1.391   .     S
C40    C42     1.391   .     S
C41    H27     1.092   .     S
C41    C122    1.363   .     S
C42    H28     1.089   .     S
C42    C121    1.367   .     S
C43    C44     1.453   .     S
C44    C49     1.399   .     S
C44    C45     1.403   .     S
C45    H30     1.103   .     S
C45    C46     1.366   .     S
C46    H31     1.102   .     S
C46    C47     1.412   .     S
C47    N5      1.360   .     S
C47    C48     1.403   .     S
C48    C49     1.366   .     S
C48    H32     1.102   .     S
C49    H29     1.098   .     S
C50    C51     1.405   .     S
C50    C55     1.399   .     S
C51    H33     1.098   .     S
C51    C52     1.369   .     S
C52    H34     1.094   .     S
C52    C53     1.396   .     S
C53    N6      1.364   .     S
C53    C54     1.400   .     S
C54    H35     1.099   .     S
C54    C55     1.365   .     S
C55    H36     1.092   .     S
N5     C56     1.277   .     S
C56    H37     1.108   .     S
C56    C57     1.424   .     S
C57    C59     1.392   .     S
C57    C58     1.390   .     S
C58    C105    1.367   .     S
C58    H38     1.092   .     S
C59    C104    1.363   .     S
C59    H39     1.089   .     S
N6     C60     1.276   .     S
C60    H40     1.109   .     S
C60    C61     1.423   .     S
C61    C62     1.391   .     S
C61    C63     1.391   .     S
C62    C80     1.363   .     S
C62    H41     1.092   .     S
C63    H42     1.089   .     S
C63    C79     1.367   .     S
C64    C65     1.453   .     S
C64    C71     1.454   .     S
C65    C70     1.399   .     S
C65    C66     1.403   .     S
C66    C67     1.366   .     S
C66    H44     1.103   .     S
C67    H45     1.102   .     S
C67    C68     1.412   .     S
C68    C69     1.403   .     S
C68    N7      1.360   .     S
C69    C70     1.366   .     S
C69    H46     1.102   .     S
C70    H43     1.098   .     S
C71    C72     1.405   .     S
C71    C76     1.399   .     S
C72    H47     1.098   .     S
C72    C73     1.369   .     S
C73    C74     1.396   .     S
C73    H48     1.094   .     S
C74    N8      1.364   .     S
C74    C75     1.400   .     S
C75    H49     1.099   .     S
C75    C76     1.365   .     S
C76    H50     1.092   .     S
N7     C77     1.277   .     S
C77    C78     1.424   .     S
C77    H51     1.108   .     S
C78    C80     1.392   .     S
C78    C79     1.390   .     S
C79    H52     1.092   .     S
C80    H53     1.089   .     S
N8     C81     1.276   .     S
C81    H54     1.109   .     S
C81    C82     1.423   .     S
C82    C83     1.391   .     S
C82    C84     1.391   .     S
C83    H55     1.092   .     S
C84    H56     1.089   .     S
C85    C86     1.453   .     S
C86    C91     1.399   .     S
C86    C87     1.403   .     S
C87    H58     1.103   .     S
C87    C88     1.366   .     S
C88    H59     1.102   .     S
C88    C89     1.412   .     S
C89    N9      1.360   .     S
C89    C90     1.403   .     S
C90    C91     1.366   .     S
C90    H60     1.102   .     S
C91    H57     1.098   .     S
C92    C93     1.405   .     S
C92    C97     1.399   .     S
C93    C94     1.369   .     S
C93    H61     1.098   .     S
C94    H62     1.094   .     S
C94    C95     1.396   .     S
C95    N10     1.364   .     S
C95    C96     1.400   .     S
C96    H63     1.099   .     S
C96    C97     1.365   .     S
C97    H64     1.092   .     S
N9     C98     1.277   .     S
C98    H65     1.108   .     S
C98    C99     1.424   .     S
C99    C101    1.392   .     S
C99    C100    1.390   .     S
C100   H66     1.092   .     S
C101   H67     1.089   .     S
N10    C102    1.276   .     S
C102   H68     1.109   .     S
C102   C103    1.423   .     S
C103   C104    1.391   .     S
C103   C105    1.391   .     S
C104   H69     1.092   .     S
C105   H70     1.089   .     S
C106   C107    1.453   .     S
C107   C112    1.399   .     S
C107   C108    1.403   .     S
C108   H72     1.103   .     S
C108   C109    1.366   .     S
C109   H73     1.102   .     S
C109   C110    1.412   .     S
C110   N11     1.360   .     S
C110   C111    1.403   .     S
C111   C112    1.366   .     S
C111   H74     1.102   .     S
C112   H71     1.098   .     S
C113   C114    1.405   .     S
C113   C118    1.399   .     S
C114   H75     1.098   .     S
C114   C115    1.369   .     S
C115   H76     1.094   .     S
C115   C116    1.396   .     S
C116   N12     1.364   .     S
C116   C117    1.400   .     S
C117   C118    1.365   .     S
C117   H77     1.099   .     S
C118   H78     1.092   .     S
N11    C119    1.277   .     S
C119   H79     1.108   .     S
C119   C120    1.424   .     S
C120   C122    1.392   .     S
C120   C121    1.390   .     S
C121   H80     1.092   .     S
C122   H81     1.089   .     S
N12    C123    1.276   .     S
C123   C124    1.423   .     S
C123   H82     1.109   .     S
C124   C125    1.391   .     S
C124   C126    1.391   .     S
C125   H83     1.092   .     S
C126   H84     1.089   .     S
