data_ACOF-1
_audit_creation_date              2016-12-13
_audit_creation_method            'Materials Studio'
_symmetry_space_group_name_H-M    'P1'
_symmetry_Int_Tables_number       1
_symmetry_cell_setting            triclinic
loop_
_symmetry_equiv_pos_as_xyz
  x,y,z
_cell_length_a                    16.0824
_cell_length_b                    16.0824
_cell_length_c                    3.4000
_cell_angle_alpha                 90.0000
_cell_angle_beta                  90.0000
_cell_angle_gamma                 120.0000
loop_
_atom_site_label
_atom_site_type_symbol
_atom_site_fract_x
_atom_site_fract_y
_atom_site_fract_z
_atom_site_U_iso_or_equiv
_atom_site_adp_type
_atom_site_occupancy
N1     N     0.54506   0.53598   1.47059   0.00000  Uiso   1.00
N2     N     0.45494   0.46402   1.47059   0.00000  Uiso   1.00
C1     C     0.62459   0.52635   1.47059   0.00000  Uiso   1.00
C2     C     0.37541   0.47365   1.47059   0.00000  Uiso   1.00
H1     H     0.62131   0.46105   1.47059   0.00000  Uiso   1.00
H2     H     0.37869   0.53895   1.47059   0.00000  Uiso   1.00
N3     N     0.96402   0.50908   1.47059   0.00000  Uiso   1.00
N4     N     0.03598   0.49092   1.47059   0.00000  Uiso   1.00
C3     C     0.97365   0.59824   1.47059   0.00000  Uiso   1.00
C4     C     0.02635   0.40176   1.47059   0.00000  Uiso   1.00
H3     H     0.03895   0.66026   1.47059   0.00000  Uiso   1.00
H4     H     0.96105   0.33974   1.47059   0.00000  Uiso   1.00
N5     N     0.99092   0.95494   1.47059   0.00000  Uiso   1.00
N6     N     0.00908   0.04506   1.47059   0.00000  Uiso   1.00
C5     C     0.90176   0.87541   1.47059   0.00000  Uiso   1.00
C6     C     0.09824   0.12459   1.47059   0.00000  Uiso   1.00
H5     H     0.83974   0.87869   1.47059   0.00000  Uiso   1.00
H6     H     0.16026   0.12131   1.47059   0.00000  Uiso   1.00
C7     C     0.73451   0.60024   1.47059   0.00000  Uiso   1.00
C8     C     0.86573   0.76549   1.47059   0.00000  Uiso   1.00
C9     C     0.89976   0.63427   1.47059   0.00000  Uiso   1.00
C10    C     0.76707   0.69898   1.47059   0.00000  Uiso   1.00
C11    C     0.93191   0.73293   1.47059   0.00000  Uiso   1.00
C12    C     0.80102   0.56809   1.47059   0.00000  Uiso   1.00
H7     H     0.77599   0.49172   1.47059   0.00000  Uiso   1.00
H8     H     0.71574   0.72401   1.47059   0.00000  Uiso   1.00
H9     H     0.00828   0.78426   1.47059   0.00000  Uiso   1.00
C13    C     0.26549   0.39976   1.47059   0.00000  Uiso   1.00
C14    C     0.13427   0.23451   1.47059   0.00000  Uiso   1.00
C15    C     0.10024   0.36573   1.47059   0.00000  Uiso   1.00
C16    C     0.23293   0.30102   1.47059   0.00000  Uiso   1.00
C17    C     0.06809   0.26707   1.47059   0.00000  Uiso   1.00
C18    C     0.19898   0.43191   1.47059   0.00000  Uiso   1.00
H10    H     0.22401   0.50828   1.47059   0.00000  Uiso   1.00
H11    H     0.28426   0.27599   1.47059   0.00000  Uiso   1.00
H12    H     0.99172   0.21574   1.47059   0.00000  Uiso   1.00
loop_
_geom_bond_atom_site_label_1
_geom_bond_atom_site_label_2
_geom_bond_distance
_geom_bond_site_symmetry_2
_ccdc_geom_bond_type
N1     C1      1.363   .     S
N1     N2      1.328   .     S
N2     C2      1.363   .     S
C1     C7      1.561   .     S
C1     H1      1.025   .     S
C2     C13     1.561   .     S
C2     H2      1.025   .     S
N3     C3      1.363   .     S
N4     C4      1.363   .     S
C3     C9      1.561   .     S
C4     C15     1.561   .     S
N5     C5      1.363   .     S
N6     C6      1.363   .     S
C5     C8      1.561   .     S
C5     H5      1.025   .     S
C6     H6      1.025   .     S
C6     C14     1.561   .     S
C7     C12     1.402   .     S
C7     C10     1.402   .     S
C8     C10     1.402   .     S
C8     C11     1.402   .     S
C9     C12     1.402   .     S
C9     C11     1.402   .     S
C10    H8      1.084   .     S
C12    H7      1.084   .     S
C13    C18     1.402   .     S
C13    C16     1.402   .     S
C14    C16     1.402   .     S
C14    C17     1.402   .     S
C15    C17     1.402   .     S
C15    C18     1.402   .     S
C16    H11     1.084   .     S
C18    H10     1.084   .     S
