data_AEM-COF-1
_audit_creation_date              2016-12-13
_audit_creation_method            'Materials Studio'
_symmetry_space_group_name_H-M    'P1'
_symmetry_Int_Tables_number       1
_symmetry_cell_setting            triclinic
loop_
_symmetry_equiv_pos_as_xyz
  x,y,z
_cell_length_a                    35.5280
_cell_length_b                    35.5280
_cell_length_c                    3.3980
_cell_angle_alpha                 90.0000
_cell_angle_beta                  90.0000
_cell_angle_gamma                 120.0000
loop_
_atom_site_label
_atom_site_type_symbol
_atom_site_fract_x
_atom_site_fract_y
_atom_site_fract_z
_atom_site_U_iso_or_equiv
_atom_site_adp_type
_atom_site_occupancy
H1     H     0.03993   0.58096   0.00000   0.00000  Uiso   1.00
C1     C     0.02280   0.54563   0.00000   0.00000  Uiso   1.00
O1     O     0.12285   0.59611   0.00000   0.00000  Uiso   1.00
C2     C     0.16443   0.60164   0.00000   0.00000  Uiso   1.00
C3     C     0.20323   0.64152   0.00000   0.00000  Uiso   1.00
H2     H     0.20249   0.67173   0.00000   0.00000  Uiso   1.00
C4     C     0.24298   0.64154   0.00000   0.00000  Uiso   1.00
C5     C     0.28330   0.68267   0.00000   0.00000  Uiso   1.00
H3     H     0.41904   0.45897   0.00000   0.00000  Uiso   1.00
C6     C     0.45437   0.47717   0.00000   0.00000  Uiso   1.00
O2     O     0.40389   0.52674   0.00000   0.00000  Uiso   1.00
C7     C     0.39836   0.56279   0.00000   0.00000  Uiso   1.00
C8     C     0.35848   0.56171   0.00000   0.00000  Uiso   1.00
H4     H     0.32827   0.53076   0.00000   0.00000  Uiso   1.00
C9     C     0.35846   0.60144   0.00000   0.00000  Uiso   1.00
C10    C     0.31733   0.60063   0.00000   0.00000  Uiso   1.00
H5     H     0.54103   0.96007   0.00000   0.00000  Uiso   1.00
C11    C     0.52283   0.97720   0.00000   0.00000  Uiso   1.00
O3     O     0.47326   0.87715   0.00000   0.00000  Uiso   1.00
C12    C     0.43721   0.83557   0.00000   0.00000  Uiso   1.00
C13    C     0.43829   0.79677   0.00000   0.00000  Uiso   1.00
H6     H     0.46924   0.79751   0.00000   0.00000  Uiso   1.00
C14    C     0.39856   0.75702   0.00000   0.00000  Uiso   1.00
C15    C     0.39937   0.71670   0.00000   0.00000  Uiso   1.00
H7     H     0.96007   0.41904   0.00000   0.00000  Uiso   1.00
C16    C     0.97720   0.45437   0.00000   0.00000  Uiso   1.00
O4     O     0.87715   0.40389   0.00000   0.00000  Uiso   1.00
C17    C     0.83557   0.39836   0.00000   0.00000  Uiso   1.00
C18    C     0.79677   0.35848   0.00000   0.00000  Uiso   1.00
H8     H     0.79751   0.32827   0.00000   0.00000  Uiso   1.00
C19    C     0.75702   0.35846   0.00000   0.00000  Uiso   1.00
C20    C     0.71670   0.31733   0.00000   0.00000  Uiso   1.00
H9     H     0.58096   0.54103   0.00000   0.00000  Uiso   1.00
C21    C     0.54563   0.52283   0.00000   0.00000  Uiso   1.00
O5     O     0.59611   0.47326   0.00000   0.00000  Uiso   1.00
C22    C     0.60164   0.43721   0.00000   0.00000  Uiso   1.00
C23    C     0.64152   0.43829   0.00000   0.00000  Uiso   1.00
H10    H     0.67173   0.46924   0.00000   0.00000  Uiso   1.00
C24    C     0.64154   0.39856   0.00000   0.00000  Uiso   1.00
C25    C     0.68267   0.39937   0.00000   0.00000  Uiso   1.00
H11    H     0.45897   0.03993   0.00000   0.00000  Uiso   1.00
C26    C     0.47717   0.02280   0.00000   0.00000  Uiso   1.00
O6     O     0.52674   0.12285   0.00000   0.00000  Uiso   1.00
C27    C     0.56279   0.16443   0.00000   0.00000  Uiso   1.00
C28    C     0.56171   0.20323   0.00000   0.00000  Uiso   1.00
H12    H     0.53076   0.20249   0.00000   0.00000  Uiso   1.00
C29    C     0.60144   0.24298   0.00000   0.00000  Uiso   1.00
C30    C     0.60063   0.28330   0.00000   0.00000  Uiso   1.00
H13    H     0.58096   0.03993   0.00000   0.00000  Uiso   1.00
C31    C     0.54563   0.02280   0.00000   0.00000  Uiso   1.00
O7     O     0.59611   0.12285   0.00000   0.00000  Uiso   1.00
C32    C     0.60164   0.16443   0.00000   0.00000  Uiso   1.00
C33    C     0.64152   0.20323   0.00000   0.00000  Uiso   1.00
H14    H     0.67173   0.20249   0.00000   0.00000  Uiso   1.00
C34    C     0.64154   0.24298   0.00000   0.00000  Uiso   1.00
C35    C     0.68267   0.28330   0.00000   0.00000  Uiso   1.00
H15    H     0.45897   0.41904   0.00000   0.00000  Uiso   1.00
C36    C     0.47717   0.45437   0.00000   0.00000  Uiso   1.00
O8     O     0.52674   0.40389   0.00000   0.00000  Uiso   1.00
C37    C     0.56279   0.39836   0.00000   0.00000  Uiso   1.00
C38    C     0.56171   0.35848   0.00000   0.00000  Uiso   1.00
H16    H     0.53076   0.32827   0.00000   0.00000  Uiso   1.00
C39    C     0.60144   0.35846   0.00000   0.00000  Uiso   1.00
C40    C     0.60063   0.31733   0.00000   0.00000  Uiso   1.00
H17    H     0.96007   0.54103   0.00000   0.00000  Uiso   1.00
C41    C     0.97720   0.52283   0.00000   0.00000  Uiso   1.00
O9     O     0.87715   0.47326   0.00000   0.00000  Uiso   1.00
C42    C     0.83557   0.43721   0.00000   0.00000  Uiso   1.00
C43    C     0.79677   0.43829   0.00000   0.00000  Uiso   1.00
H18    H     0.79751   0.46924   0.00000   0.00000  Uiso   1.00
C44    C     0.75702   0.39856   0.00000   0.00000  Uiso   1.00
C45    C     0.71670   0.39937   0.00000   0.00000  Uiso   1.00
H19    H     0.41904   0.96007   0.00000   0.00000  Uiso   1.00
C46    C     0.45437   0.97720   0.00000   0.00000  Uiso   1.00
O10    O     0.40389   0.87715   0.00000   0.00000  Uiso   1.00
C47    C     0.39836   0.83557   0.00000   0.00000  Uiso   1.00
C48    C     0.35848   0.79677   0.00000   0.00000  Uiso   1.00
H20    H     0.32827   0.79751   0.00000   0.00000  Uiso   1.00
C49    C     0.35846   0.75702   0.00000   0.00000  Uiso   1.00
C50    C     0.31733   0.71670   0.00000   0.00000  Uiso   1.00
H21    H     0.54103   0.58096   0.00000   0.00000  Uiso   1.00
C51    C     0.52283   0.54563   0.00000   0.00000  Uiso   1.00
O11    O     0.47326   0.59611   0.00000   0.00000  Uiso   1.00
C52    C     0.43721   0.60164   0.00000   0.00000  Uiso   1.00
C53    C     0.43829   0.64152   0.00000   0.00000  Uiso   1.00
H22    H     0.46924   0.67173   0.00000   0.00000  Uiso   1.00
C54    C     0.39856   0.64154   0.00000   0.00000  Uiso   1.00
C55    C     0.39937   0.68267   0.00000   0.00000  Uiso   1.00
H23    H     0.03993   0.45897   0.00000   0.00000  Uiso   1.00
C56    C     0.02280   0.47717   0.00000   0.00000  Uiso   1.00
O12    O     0.12285   0.52674   0.00000   0.00000  Uiso   1.00
C57    C     0.16443   0.56279   0.00000   0.00000  Uiso   1.00
C58    C     0.20323   0.56171   0.00000   0.00000  Uiso   1.00
H24    H     0.20249   0.53076   0.00000   0.00000  Uiso   1.00
C59    C     0.24298   0.60144   0.00000   0.00000  Uiso   1.00
C60    C     0.28330   0.60063   0.00000   0.00000  Uiso   1.00
C61    C     0.04583   0.52291   0.00000   0.00000  Uiso   1.00
B1     B     0.09679   0.54840   0.00000   0.00000  Uiso   1.00
C62    C     0.47708   0.52291   0.00000   0.00000  Uiso   1.00
B2     B     0.45161   0.54840   0.00000   0.00000  Uiso   1.00
C63    C     0.47708   0.95417   0.00000   0.00000  Uiso   1.00
B3     B     0.45161   0.90321   0.00000   0.00000  Uiso   1.00
C64    C     0.95417   0.47708   0.00000   0.00000  Uiso   1.00
B4     B     0.90321   0.45161   0.00000   0.00000  Uiso   1.00
C65    C     0.52292   0.47708   0.00000   0.00000  Uiso   1.00
B5     B     0.54840   0.45161   0.00000   0.00000  Uiso   1.00
C66    C     0.52291   0.04583   0.00000   0.00000  Uiso   1.00
B6     B     0.54839   0.09679   0.00000   0.00000  Uiso   1.00
loop_
_geom_bond_atom_site_label_1
_geom_bond_atom_site_label_2
_geom_bond_distance
_geom_bond_site_symmetry_2
_ccdc_geom_bond_type
H1     C1      1.087   .     S
C1     C61     1.408   .     S
O1     C2      1.389   .     S
O1     B1      1.470   .     S
C2     C3      1.398   .     S
C2     C57     1.380   .     S
C3     H2      1.087   .     S
C3     C4      1.412   .     S
C4     C5      1.447   .     S
C4     C59     1.425   .     S
C5     C50     1.209   .     S
H3     C6      1.087   .     S
C6     C62     1.407   .     S
C6     C36     1.403   .     S
O2     C7      1.389   .     S
O2     B2      1.470   .     S
C7     C8      1.398   .     S
C7     C52     1.380   .     S
C8     H4      1.087   .     S
C8     C9      1.412   .     S
C9     C10     1.447   .     S
C9     C54     1.425   .     S
C10    C60     1.209   .     S
H5     C11     1.087   .     S
C11    C63     1.408   .     S
O3     B3      1.470   .     S
O3     C12     1.389   .     S
C12    C47     1.380   .     S
C12    C13     1.398   .     S
C13    C14     1.412   .     S
C13    H6      1.087   .     S
C14    C49     1.425   .     S
C14    C15     1.447   .     S
C15    C55     1.209   .     S
H7     C16     1.087   .     S
C16    C64     1.407   .     S
O4     B4      1.470   .     S
O4     C17     1.389   .     S
C17    C18     1.398   .     S
C17    C42     1.380   .     S
C18    C19     1.412   .     S
C18    H8      1.087   .     S
C19    C44     1.425   .     S
C19    C20     1.447   .     S
C20    C35     1.209   .     S
H9     C21     1.087   .     S
C21    C51     1.403   .     S
C21    C65     1.407   .     S
O5     C22     1.389   .     S
O5     B5      1.470   .     S
C22    C23     1.398   .     S
C22    C37     1.380   .     S
C23    H10     1.087   .     S
C23    C24     1.412   .     S
C24    C39     1.425   .     S
C24    C25     1.447   .     S
C25    C45     1.209   .     S
H11    C26     1.087   .     S
C26    C66     1.408   .     S
O6     C27     1.389   .     S
O6     B6      1.470   .     S
C27    C32     1.380   .     S
C27    C28     1.398   .     S
C28    H12     1.087   .     S
C28    C29     1.412   .     S
C29    C30     1.447   .     S
C29    C34     1.425   .     S
C30    C40     1.209   .     S
H13    C31     1.087   .     S
C31    C66     1.408   .     S
O7     C32     1.389   .     S
O7     B6      1.470   .     S
C32    C33     1.398   .     S
C33    H14     1.087   .     S
C33    C34     1.412   .     S
C34    C35     1.447   .     S
H15    C36     1.087   .     S
C36    C65     1.408   .     S
O8     B5      1.470   .     S
O8     C37     1.389   .     S
C37    C38     1.398   .     S
C38    C39     1.412   .     S
C38    H16     1.087   .     S
C39    C40     1.447   .     S
H17    C41     1.087   .     S
C41    C64     1.407   .     S
O9     C42     1.389   .     S
O9     B4      1.470   .     S
C42    C43     1.398   .     S
C43    H18     1.087   .     S
C43    C44     1.412   .     S
C44    C45     1.447   .     S
H19    C46     1.087   .     S
C46    C63     1.408   .     S
O10    B3      1.470   .     S
O10    C47     1.389   .     S
C47    C48     1.398   .     S
C48    C49     1.412   .     S
C48    H20     1.087   .     S
C49    C50     1.447   .     S
H21    C51     1.087   .     S
C51    C62     1.408   .     S
O11    C52     1.389   .     S
O11    B2      1.470   .     S
C52    C53     1.398   .     S
C53    H22     1.087   .     S
C53    C54     1.412   .     S
C54    C55     1.447   .     S
H23    C56     1.087   .     S
C56    C61     1.407   .     S
O12    C57     1.389   .     S
O12    B1      1.470   .     S
C57    C58     1.398   .     S
C58    H24     1.087   .     S
C58    C59     1.412   .     S
C59    C60     1.447   .     S
C61    B1      1.568   .     S
C62    B2      1.568   .     S
C63    B3      1.568   .     S
C64    B4      1.568   .     S
C65    B5      1.568   .     S
C66    B6      1.568   .     S
