data_AEM-COF-2
_audit_creation_date              2016-12-13
_audit_creation_method            'Materials Studio'
_symmetry_space_group_name_H-M    'P1'
_symmetry_Int_Tables_number       1
_symmetry_cell_setting            triclinic
loop_
_symmetry_equiv_pos_as_xyz
  x,y,z
_cell_length_a                    40.9350
_cell_length_b                    40.9350
_cell_length_c                    3.2570
_cell_angle_alpha                 90.0000
_cell_angle_beta                  90.0000
_cell_angle_gamma                 120.0000
loop_
_atom_site_label
_atom_site_type_symbol
_atom_site_fract_x
_atom_site_fract_y
_atom_site_fract_z
_atom_site_U_iso_or_equiv
_atom_site_adp_type
_atom_site_occupancy
H1     H     0.03684   0.57103   0.00000   0.00000  Uiso   1.00
C1     C     0.01907   0.54048   0.00000   0.00000  Uiso   1.00
O1     O     0.09491   0.57618   0.00000   0.00000  Uiso   1.00
C2     C     0.13023   0.58160   0.00000   0.00000  Uiso   1.00
C3     C     0.16163   0.61632   0.00000   0.00000  Uiso   1.00
C4     C     0.15656   0.64779   0.00000   0.00000  Uiso   1.00
H2     H     0.12810   0.64343   0.00000   0.00000  Uiso   1.00
C5     C     0.18824   0.68197   0.00000   0.00000  Uiso   1.00
H3     H     0.18859   0.70870   0.00000   0.00000  Uiso   1.00
C6     C     0.22266   0.68216   0.00000   0.00000  Uiso   1.00
C7     C     0.25439   0.71641   0.00000   0.00000  Uiso   1.00
C8     C     0.41977   0.61560   0.00000   0.00000  Uiso   1.00
C9     C     0.34911   0.57672   0.00000   0.00000  Uiso   1.00
H4     H     0.42897   0.46581   0.00000   0.00000  Uiso   1.00
C10    C     0.45952   0.47859   0.00000   0.00000  Uiso   1.00
O2     O     0.42382   0.51873   0.00000   0.00000  Uiso   1.00
C11    C     0.41840   0.54863   0.00000   0.00000  Uiso   1.00
C12    C     0.38368   0.54531   0.00000   0.00000  Uiso   1.00
C13    C     0.35221   0.50877   0.00000   0.00000  Uiso   1.00
H5     H     0.35657   0.48467   0.00000   0.00000  Uiso   1.00
C14    C     0.31803   0.50627   0.00000   0.00000  Uiso   1.00
H6     H     0.29130   0.47989   0.00000   0.00000  Uiso   1.00
C15    C     0.31784   0.54050   0.00000   0.00000  Uiso   1.00
C16    C     0.28359   0.53798   0.00000   0.00000  Uiso   1.00
C17    C     0.38440   0.80417   0.00000   0.00000  Uiso   1.00
C18    C     0.42328   0.77239   0.00000   0.00000  Uiso   1.00
H7     H     0.53419   0.96316   0.00000   0.00000  Uiso   1.00
C19    C     0.52141   0.98093   0.00000   0.00000  Uiso   1.00
O3     O     0.48127   0.90509   0.00000   0.00000  Uiso   1.00
C20    C     0.45137   0.86977   0.00000   0.00000  Uiso   1.00
C21    C     0.45469   0.83837   0.00000   0.00000  Uiso   1.00
C22    C     0.49123   0.84344   0.00000   0.00000  Uiso   1.00
H8     H     0.51533   0.87190   0.00000   0.00000  Uiso   1.00
C23    C     0.49373   0.81176   0.00000   0.00000  Uiso   1.00
H9     H     0.52011   0.81141   0.00000   0.00000  Uiso   1.00
C24    C     0.45950   0.77734   0.00000   0.00000  Uiso   1.00
C25    C     0.46202   0.74561   0.00000   0.00000  Uiso   1.00
C26    C     0.19583   0.58023   0.00000   0.00000  Uiso   1.00
C27    C     0.22761   0.65089   0.00000   0.00000  Uiso   1.00
H10    H     0.96316   0.42897   0.00000   0.00000  Uiso   1.00
C28    C     0.98093   0.45952   0.00000   0.00000  Uiso   1.00
O4     O     0.90509   0.42382   0.00000   0.00000  Uiso   1.00
C29    C     0.86977   0.41840   0.00000   0.00000  Uiso   1.00
C30    C     0.83837   0.38368   0.00000   0.00000  Uiso   1.00
C31    C     0.84344   0.35221   0.00000   0.00000  Uiso   1.00
H11    H     0.87190   0.35657   0.00000   0.00000  Uiso   1.00
C32    C     0.81176   0.31803   0.00000   0.00000  Uiso   1.00
H12    H     0.81141   0.29130   0.00000   0.00000  Uiso   1.00
C33    C     0.77734   0.31784   0.00000   0.00000  Uiso   1.00
C34    C     0.74561   0.28359   0.00000   0.00000  Uiso   1.00
C35    C     0.58023   0.38440   0.00000   0.00000  Uiso   1.00
C36    C     0.65089   0.42328   0.00000   0.00000  Uiso   1.00
H13    H     0.57103   0.53419   0.00000   0.00000  Uiso   1.00
C37    C     0.54048   0.52141   0.00000   0.00000  Uiso   1.00
O5     O     0.57618   0.48127   0.00000   0.00000  Uiso   1.00
C38    C     0.58160   0.45137   0.00000   0.00000  Uiso   1.00
C39    C     0.61632   0.45469   0.00000   0.00000  Uiso   1.00
C40    C     0.64779   0.49123   0.00000   0.00000  Uiso   1.00
H14    H     0.64343   0.51533   0.00000   0.00000  Uiso   1.00
C41    C     0.68197   0.49373   0.00000   0.00000  Uiso   1.00
H15    H     0.70870   0.52011   0.00000   0.00000  Uiso   1.00
C42    C     0.68216   0.45950   0.00000   0.00000  Uiso   1.00
C43    C     0.71641   0.46202   0.00000   0.00000  Uiso   1.00
C44    C     0.61560   0.19583   0.00000   0.00000  Uiso   1.00
C45    C     0.57672   0.22761   0.00000   0.00000  Uiso   1.00
H16    H     0.46581   0.03684   0.00000   0.00000  Uiso   1.00
C46    C     0.47859   0.01907   0.00000   0.00000  Uiso   1.00
O6     O     0.51873   0.09491   0.00000   0.00000  Uiso   1.00
C47    C     0.54863   0.13023   0.00000   0.00000  Uiso   1.00
C48    C     0.54531   0.16163   0.00000   0.00000  Uiso   1.00
C49    C     0.50877   0.15656   0.00000   0.00000  Uiso   1.00
H17    H     0.48467   0.12810   0.00000   0.00000  Uiso   1.00
C50    C     0.50627   0.18824   0.00000   0.00000  Uiso   1.00
H18    H     0.47989   0.18859   0.00000   0.00000  Uiso   1.00
C51    C     0.54050   0.22266   0.00000   0.00000  Uiso   1.00
C52    C     0.53798   0.25439   0.00000   0.00000  Uiso   1.00
C53    C     0.80417   0.41977   0.00000   0.00000  Uiso   1.00
C54    C     0.77239   0.34911   0.00000   0.00000  Uiso   1.00
H19    H     0.57103   0.03684   0.00000   0.00000  Uiso   1.00
C55    C     0.54048   0.01907   0.00000   0.00000  Uiso   1.00
O7     O     0.57618   0.09491   0.00000   0.00000  Uiso   1.00
C56    C     0.58160   0.13023   0.00000   0.00000  Uiso   1.00
C57    C     0.61632   0.16163   0.00000   0.00000  Uiso   1.00
C58    C     0.64779   0.15656   0.00000   0.00000  Uiso   1.00
H20    H     0.64343   0.12810   0.00000   0.00000  Uiso   1.00
C59    C     0.68197   0.18824   0.00000   0.00000  Uiso   1.00
H21    H     0.70870   0.18859   0.00000   0.00000  Uiso   1.00
C60    C     0.68216   0.22266   0.00000   0.00000  Uiso   1.00
C61    C     0.71641   0.25439   0.00000   0.00000  Uiso   1.00
C62    C     0.61560   0.41977   0.00000   0.00000  Uiso   1.00
C63    C     0.57672   0.34911   0.00000   0.00000  Uiso   1.00
H22    H     0.46581   0.42897   0.00000   0.00000  Uiso   1.00
C64    C     0.47859   0.45952   0.00000   0.00000  Uiso   1.00
O8     O     0.51873   0.42382   0.00000   0.00000  Uiso   1.00
C65    C     0.54863   0.41840   0.00000   0.00000  Uiso   1.00
C66    C     0.54531   0.38368   0.00000   0.00000  Uiso   1.00
C67    C     0.50877   0.35221   0.00000   0.00000  Uiso   1.00
H23    H     0.48467   0.35657   0.00000   0.00000  Uiso   1.00
C68    C     0.50627   0.31803   0.00000   0.00000  Uiso   1.00
H24    H     0.47989   0.29130   0.00000   0.00000  Uiso   1.00
C69    C     0.54050   0.31784   0.00000   0.00000  Uiso   1.00
C70    C     0.53798   0.28359   0.00000   0.00000  Uiso   1.00
C71    C     0.80417   0.38440   0.00000   0.00000  Uiso   1.00
C72    C     0.77239   0.42328   0.00000   0.00000  Uiso   1.00
H25    H     0.96316   0.53419   0.00000   0.00000  Uiso   1.00
C73    C     0.98093   0.52141   0.00000   0.00000  Uiso   1.00
O9     O     0.90509   0.48127   0.00000   0.00000  Uiso   1.00
C74    C     0.86977   0.45137   0.00000   0.00000  Uiso   1.00
C75    C     0.83837   0.45469   0.00000   0.00000  Uiso   1.00
C76    C     0.84344   0.49123   0.00000   0.00000  Uiso   1.00
H26    H     0.87190   0.51533   0.00000   0.00000  Uiso   1.00
C77    C     0.81176   0.49373   0.00000   0.00000  Uiso   1.00
H27    H     0.81141   0.52011   0.00000   0.00000  Uiso   1.00
C78    C     0.77734   0.45950   0.00000   0.00000  Uiso   1.00
C79    C     0.74561   0.46202   0.00000   0.00000  Uiso   1.00
C80    C     0.58023   0.19583   0.00000   0.00000  Uiso   1.00
C81    C     0.65089   0.22761   0.00000   0.00000  Uiso   1.00
H28    H     0.42897   0.96316   0.00000   0.00000  Uiso   1.00
C82    C     0.45952   0.98093   0.00000   0.00000  Uiso   1.00
O10    O     0.42382   0.90509   0.00000   0.00000  Uiso   1.00
C83    C     0.41840   0.86977   0.00000   0.00000  Uiso   1.00
C84    C     0.38368   0.83837   0.00000   0.00000  Uiso   1.00
C85    C     0.35221   0.84344   0.00000   0.00000  Uiso   1.00
H29    H     0.35657   0.87190   0.00000   0.00000  Uiso   1.00
C86    C     0.31803   0.81176   0.00000   0.00000  Uiso   1.00
H30    H     0.29130   0.81141   0.00000   0.00000  Uiso   1.00
C87    C     0.31784   0.77734   0.00000   0.00000  Uiso   1.00
C88    C     0.28359   0.74561   0.00000   0.00000  Uiso   1.00
C89    C     0.38440   0.58023   0.00000   0.00000  Uiso   1.00
C90    C     0.42328   0.65089   0.00000   0.00000  Uiso   1.00
H31    H     0.53419   0.57103   0.00000   0.00000  Uiso   1.00
C91    C     0.52141   0.54048   0.00000   0.00000  Uiso   1.00
O11    O     0.48127   0.57618   0.00000   0.00000  Uiso   1.00
C92    C     0.45137   0.58160   0.00000   0.00000  Uiso   1.00
C93    C     0.45469   0.61632   0.00000   0.00000  Uiso   1.00
C94    C     0.49123   0.64779   0.00000   0.00000  Uiso   1.00
H32    H     0.51533   0.64343   0.00000   0.00000  Uiso   1.00
C95    C     0.49373   0.68197   0.00000   0.00000  Uiso   1.00
H33    H     0.52011   0.70870   0.00000   0.00000  Uiso   1.00
C96    C     0.45950   0.68216   0.00000   0.00000  Uiso   1.00
C97    C     0.46202   0.71641   0.00000   0.00000  Uiso   1.00
C98    C     0.19583   0.61560   0.00000   0.00000  Uiso   1.00
C99    C     0.22761   0.57672   0.00000   0.00000  Uiso   1.00
H34    H     0.03684   0.46581   0.00000   0.00000  Uiso   1.00
C100   C     0.01907   0.47859   0.00000   0.00000  Uiso   1.00
O12    O     0.09491   0.51873   0.00000   0.00000  Uiso   1.00
C101   C     0.13023   0.54863   0.00000   0.00000  Uiso   1.00
C102   C     0.16163   0.54531   0.00000   0.00000  Uiso   1.00
C103   C     0.15656   0.50877   0.00000   0.00000  Uiso   1.00
H35    H     0.12810   0.48467   0.00000   0.00000  Uiso   1.00
C104   C     0.18824   0.50627   0.00000   0.00000  Uiso   1.00
H36    H     0.18859   0.47989   0.00000   0.00000  Uiso   1.00
C105   C     0.22266   0.54050   0.00000   0.00000  Uiso   1.00
C106   C     0.25439   0.53798   0.00000   0.00000  Uiso   1.00
C107   C     0.41977   0.80417   0.00000   0.00000  Uiso   1.00
C108   C     0.34911   0.77239   0.00000   0.00000  Uiso   1.00
C109   C     0.03497   0.51749   0.00000   0.00000  Uiso   1.00
B1     B     0.07503   0.53751   0.00000   0.00000  Uiso   1.00
C110   C     0.48252   0.51749   0.00000   0.00000  Uiso   1.00
B2     B     0.46248   0.53751   0.00000   0.00000  Uiso   1.00
C111   C     0.48251   0.96503   0.00000   0.00000  Uiso   1.00
B3     B     0.46248   0.92497   0.00000   0.00000  Uiso   1.00
C112   C     0.96503   0.48251   0.00000   0.00000  Uiso   1.00
B4     B     0.92497   0.46248   0.00000   0.00000  Uiso   1.00
C113   C     0.51749   0.48251   0.00000   0.00000  Uiso   1.00
B5     B     0.53751   0.46248   0.00000   0.00000  Uiso   1.00
C114   C     0.51749   0.03497   0.00000   0.00000  Uiso   1.00
B6     B     0.53752   0.07503   0.00000   0.00000  Uiso   1.00
H37    H     0.39936   0.65557   0.00000   0.00000  Uiso   1.00
H38    H     0.34443   0.74379   0.00000   0.00000  Uiso   1.00
H39    H     0.25621   0.60064   0.00000   0.00000  Uiso   1.00
H40    H     0.60064   0.34443   0.00000   0.00000  Uiso   1.00
H41    H     0.65557   0.25621   0.00000   0.00000  Uiso   1.00
H42    H     0.74379   0.39936   0.00000   0.00000  Uiso   1.00
H43    H     0.65557   0.39936   0.00000   0.00000  Uiso   1.00
H44    H     0.74379   0.34443   0.00000   0.00000  Uiso   1.00
H45    H     0.60064   0.25621   0.00000   0.00000  Uiso   1.00
H46    H     0.34443   0.60064   0.00000   0.00000  Uiso   1.00
H47    H     0.25621   0.65557   0.00000   0.00000  Uiso   1.00
H48    H     0.39936   0.74379   0.00000   0.00000  Uiso   1.00
loop_
_geom_bond_atom_site_label_1
_geom_bond_atom_site_label_2
_geom_bond_distance
_geom_bond_site_symmetry_2
_ccdc_geom_bond_type
H1     C1      1.088   .     S
C1     C109    1.386   .     S
O1     C2      1.349   .     S
O1     B1      1.371   .     S
C2     C3      1.358   .     S
C2     C101    1.350   .     S
C3     C4      1.404   .     S
C3     C98     1.415   .     S
C4     H2      1.087   .     S
C4     C5      1.351   .     S
C5     C6      1.405   .     S
C5     H3      1.087   .     S
C6     C27     1.392   .     S
C6     C7      1.353   .     S
C7     C88     1.195   .     S
C8     C93     1.415   .     S
C8     C90     1.378   .     S
C8     C89     1.448   .     S
C9     C89     1.378   .     S
C9     H46     1.088   .     S
C9     C15     1.392   .     S
H4     C10     1.088   .     S
C10    C64     1.352   .     S
C10    C110    1.386   .     S
O2     C11     1.349   .     S
O2     B2      1.371   .     S
C11    C12     1.358   .     S
C11    C92     1.350   .     S
C12    C13     1.404   .     S
C12    C89     1.415   .     S
C13    C14     1.351   .     S
C13    H5      1.087   .     S
C14    C15     1.405   .     S
C14    H6      1.087   .     S
C15    C16     1.353   .     S
C16    C106    1.195   .     S
C17    C84     1.415   .     S
C17    C107    1.448   .     S
C17    C108    1.378   .     S
C18    C24     1.392   .     S
C18    C107    1.378   .     S
C18    H48     1.088   .     S
H7     C19     1.088   .     S
C19    C111    1.386   .     S
O3     B3      1.371   .     S
O3     C20     1.349   .     S
C20    C83     1.350   .     S
C20    C21     1.358   .     S
C21    C107    1.415   .     S
C21    C22     1.404   .     S
C22    C23     1.351   .     S
C22    H8      1.087   .     S
C23    H9      1.087   .     S
C23    C24     1.405   .     S
C24    C25     1.353   .     S
C25    C97     1.195   .     S
C26    C99     1.378   .     S
C26    C98     1.448   .     S
C26    C102    1.415   .     S
C27    H47     1.088   .     S
C27    C98     1.378   .     S
H10    C28     1.088   .     S
C28    C112    1.386   .     S
O4     C29     1.349   .     S
O4     B4      1.371   .     S
C29    C74     1.350   .     S
C29    C30     1.358   .     S
C30    C71     1.415   .     S
C30    C31     1.404   .     S
C31    H11     1.087   .     S
C31    C32     1.351   .     S
C32    C33     1.405   .     S
C32    H12     1.087   .     S
C33    C54     1.392   .     S
C33    C34     1.353   .     S
C34    C61     1.195   .     S
C35    C66     1.415   .     S
C35    C62     1.448   .     S
C35    C63     1.378   .     S
C36    C62     1.378   .     S
C36    C42     1.392   .     S
C36    H43     1.088   .     S
H13    C37     1.088   .     S
C37    C91     1.352   .     S
C37    C113    1.386   .     S
O5     B5      1.371   .     S
O5     C38     1.349   .     S
C38    C39     1.358   .     S
C38    C65     1.350   .     S
C39    C40     1.404   .     S
C39    C62     1.415   .     S
C40    C41     1.351   .     S
C40    H14     1.087   .     S
C41    C42     1.405   .     S
C41    H15     1.087   .     S
C42    C43     1.353   .     S
C43    C79     1.195   .     S
C44    C80     1.448   .     S
C44    C57     1.415   .     S
C44    C81     1.378   .     S
C45    C51     1.392   .     S
C45    H45     1.088   .     S
C45    C80     1.378   .     S
H16    C46     1.088   .     S
C46    C114    1.386   .     S
O6     B6      1.371   .     S
O6     C47     1.349   .     S
C47    C56     1.350   .     S
C47    C48     1.358   .     S
C48    C49     1.404   .     S
C48    C80     1.415   .     S
C49    C50     1.351   .     S
C49    H17     1.087   .     S
C50    H18     1.087   .     S
C50    C51     1.405   .     S
C51    C52     1.353   .     S
C52    C70     1.195   .     S
C53    C72     1.378   .     S
C53    C75     1.415   .     S
C53    C71     1.448   .     S
C54    H44     1.088   .     S
C54    C71     1.378   .     S
H19    C55     1.088   .     S
C55    C114    1.386   .     S
O7     B6      1.371   .     S
O7     C56     1.349   .     S
C56    C57     1.358   .     S
C57    C58     1.404   .     S
C58    C59     1.351   .     S
C58    H20     1.087   .     S
C59    H21     1.087   .     S
C59    C60     1.405   .     S
C60    C81     1.392   .     S
C60    C61     1.353   .     S
C63    H40     1.088   .     S
C63    C69     1.392   .     S
H22    C64     1.088   .     S
C64    C113    1.386   .     S
O8     C65     1.349   .     S
O8     B5      1.371   .     S
C65    C66     1.358   .     S
C66    C67     1.404   .     S
C67    H23     1.087   .     S
C67    C68     1.351   .     S
C68    C69     1.405   .     S
C68    H24     1.087   .     S
C69    C70     1.353   .     S
C72    C78     1.392   .     S
C72    H42     1.088   .     S
H25    C73     1.088   .     S
C73    C112    1.386   .     S
O9     C74     1.349   .     S
O9     B4      1.371   .     S
C74    C75     1.358   .     S
C75    C76     1.404   .     S
C76    C77     1.351   .     S
C76    H26     1.087   .     S
C77    C78     1.405   .     S
C77    H27     1.087   .     S
C78    C79     1.353   .     S
C81    H41     1.088   .     S
H28    C82     1.088   .     S
C82    C111    1.386   .     S
O10    B3      1.371   .     S
O10    C83     1.349   .     S
C83    C84     1.358   .     S
C84    C85     1.404   .     S
C85    C86     1.351   .     S
C85    H29     1.087   .     S
C86    H30     1.087   .     S
C86    C87     1.405   .     S
C87    C108    1.392   .     S
C87    C88     1.353   .     S
C90    C96     1.392   .     S
C90    H37     1.088   .     S
H31    C91     1.088   .     S
C91    C110    1.386   .     S
O11    C92     1.349   .     S
O11    B2      1.371   .     S
C92    C93     1.358   .     S
C93    C94     1.404   .     S
C94    H32     1.087   .     S
C94    C95     1.351   .     S
C95    C96     1.405   .     S
C95    H33     1.087   .     S
C96    C97     1.353   .     S
C99    H39     1.088   .     S
C99    C105    1.392   .     S
H34    C100    1.088   .     S
C100   C109    1.386   .     S
O12    C101    1.349   .     S
O12    B1      1.371   .     S
C101   C102    1.358   .     S
C102   C103    1.404   .     S
C103   C104    1.351   .     S
C103   H35     1.087   .     S
C104   C105    1.405   .     S
C104   H36     1.087   .     S
C105   C106    1.353   .     S
C108   H38     1.088   .     S
C109   B1      1.420   .     S
C110   B2      1.420   .     S
C111   B3      1.420   .     S
C112   B4      1.420   .     S
C113   B5      1.420   .     S
C114   B6      1.420   .     S
