data_ATFG-COF
_audit_creation_date              2016-12-13
_audit_creation_method            'Materials Studio'
_symmetry_space_group_name_H-M    'P1'
_symmetry_Int_Tables_number       1
_symmetry_cell_setting            triclinic
loop_
_symmetry_equiv_pos_as_xyz
  x,y,z
_cell_length_a                    15.4975
_cell_length_b                    15.4975
_cell_length_c                    3.6000
_cell_angle_alpha                 90.0000
_cell_angle_beta                  90.0000
_cell_angle_gamma                 120.0000
loop_
_atom_site_label
_atom_site_type_symbol
_atom_site_fract_x
_atom_site_fract_y
_atom_site_fract_z
_atom_site_U_iso_or_equiv
_atom_site_adp_type
_atom_site_occupancy
N1     N     0.54534   0.53979   1.38889   0.00000  Uiso   1.00
N2     N     0.45466   0.46021   1.38889   0.00000  Uiso   1.00
C1     C     0.63229   0.53781   1.38889   0.00000  Uiso   1.00
C2     C     0.36771   0.46219   1.38889   0.00000  Uiso   1.00
H1     H     0.63493   0.47305   1.38889   0.00000  Uiso   1.00
H2     H     0.36507   0.52695   1.38889   0.00000  Uiso   1.00
N3     N     0.96021   0.50555   1.38889   0.00000  Uiso   1.00
N4     N     0.03979   0.49445   1.38889   0.00000  Uiso   1.00
C3     C     0.96219   0.59448   1.38889   0.00000  Uiso   1.00
C4     C     0.03781   0.40552   1.38889   0.00000  Uiso   1.00
H3     H     0.02695   0.66188   1.38889   0.00000  Uiso   1.00
H4     H     0.97305   0.33812   1.38889   0.00000  Uiso   1.00
N5     N     0.99445   0.95466   1.38889   0.00000  Uiso   1.00
N6     N     0.00555   0.04534   1.38889   0.00000  Uiso   1.00
C5     C     0.90552   0.86771   1.38889   0.00000  Uiso   1.00
C6     C     0.09448   0.13229   1.38889   0.00000  Uiso   1.00
H5     H     0.83812   0.86507   1.38889   0.00000  Uiso   1.00
H6     H     0.16188   0.13493   1.38889   0.00000  Uiso   1.00
C7     C     0.79942   0.56427   1.38889   0.00000  Uiso   1.00
C8     C     0.72852   0.59662   1.38889   0.00000  Uiso   1.00
O1     O     0.77302   0.48015   1.38889   0.00000  Uiso   1.00
C9     C     0.76485   0.70058   1.38889   0.00000  Uiso   1.00
C10    C     0.86809   0.77148   1.38889   0.00000  Uiso   1.00
O2     O     0.70713   0.72698   1.38889   0.00000  Uiso   1.00
C11    C     0.93573   0.73515   1.38889   0.00000  Uiso   1.00
C12    C     0.90339   0.63191   1.38889   0.00000  Uiso   1.00
O3     O     0.01985   0.79287   1.38889   0.00000  Uiso   1.00
C13    C     0.20058   0.43573   1.38889   0.00000  Uiso   1.00
C14    C     0.27148   0.40339   1.38889   0.00000  Uiso   1.00
O4     O     0.22698   0.51985   1.38889   0.00000  Uiso   1.00
C15    C     0.23515   0.29942   1.38889   0.00000  Uiso   1.00
C16    C     0.13191   0.22852   1.38889   0.00000  Uiso   1.00
O5     O     0.29287   0.27302   1.38889   0.00000  Uiso   1.00
C17    C     0.06427   0.26485   1.38889   0.00000  Uiso   1.00
C18    C     0.09661   0.36809   1.38889   0.00000  Uiso   1.00
O6     O     0.98015   0.20713   1.38889   0.00000  Uiso   1.00
loop_
_geom_bond_atom_site_label_1
_geom_bond_atom_site_label_2
_geom_bond_distance
_geom_bond_site_symmetry_2
_ccdc_geom_bond_type
N1     C1      1.363   .     S
N1     N2      1.328   .     S
N2     C2      1.363   .     S
C1     C8      1.302   .     S
C1     H1      1.025   .     S
C2     H2      1.025   .     S
C2     C14     1.302   .     S
N3     C3      1.363   .     S
N4     C4      1.363   .     S
C3     C12     1.302   .     S
C4     C18     1.302   .     S
N5     C5      1.363   .     S
N6     C6      1.363   .     S
C5     H5      1.025   .     S
C5     C10     1.302   .     S
C6     H6      1.025   .     S
C6     C16     1.302   .     S
C7     C8      1.417   .     S
C7     C12     1.416   .     S
C7     O1      1.155   .     S
C8     C9      1.416   .     S
C9     O2      1.155   .     S
C9     C10     1.417   .     S
C10    C11     1.416   .     S
C11    C12     1.417   .     S
C13    O4      1.155   .     S
C13    C14     1.417   .     S
C13    C18     1.416   .     S
C14    C15     1.416   .     S
C15    O5      1.155   .     S
C15    C16     1.417   .     S
C16    C17     1.416   .     S
C17    C18     1.417   .     S
