data_AzO-COF
_audit_creation_date              2016-12-13
_audit_creation_method            'Materials Studio'
_symmetry_space_group_name_H-M    'P1'
_symmetry_Int_Tables_number       1
_symmetry_cell_setting            triclinic
loop_
_symmetry_equiv_pos_as_xyz
  x,y,z
_cell_length_a                    41.1981
_cell_length_b                    41.1981
_cell_length_c                    3.4999
_cell_angle_alpha                 90.0000
_cell_angle_beta                  90.0000
_cell_angle_gamma                 120.0000
loop_
_atom_site_label
_atom_site_type_symbol
_atom_site_fract_x
_atom_site_fract_y
_atom_site_fract_z
_atom_site_U_iso_or_equiv
_atom_site_adp_type
_atom_site_occupancy
C1     C     0.70219   0.33473   0.50000   0.00000  Uiso   1.00
C2     C     0.70071   0.36892   0.50000   0.00000  Uiso   1.00
C3     C     0.73533   0.40378   0.50000   0.00000  Uiso   1.00
C4     C     0.73820   0.33743   0.50000   0.00000  Uiso   1.00
C5     C     0.76974   0.40492   0.50000   0.00000  Uiso   1.00
C6     C     0.77116   0.37212   0.50000   0.00000  Uiso   1.00
C7     C     0.66822   0.29929   0.50000   0.00000  Uiso   1.00
C8     C     0.63255   0.29781   0.50000   0.00000  Uiso   1.00
C9     C     0.59923   0.26180   0.50000   0.00000  Uiso   1.00
C10    C     0.66845   0.26467   0.50000   0.00000  Uiso   1.00
C11    C     0.60096   0.22884   0.50000   0.00000  Uiso   1.00
C12    C     0.63519   0.23026   0.50000   0.00000  Uiso   1.00
C13    C     0.66527   0.36745   0.50000   0.00000  Uiso   1.00
C14    C     0.63108   0.33178   0.50000   0.00000  Uiso   1.00
C15    C     0.59622   0.33154   0.50000   0.00000  Uiso   1.00
C16    C     0.66257   0.40077   0.50000   0.00000  Uiso   1.00
C17    C     0.59508   0.36481   0.50000   0.00000  Uiso   1.00
C18    C     0.62788   0.39904   0.50000   0.00000  Uiso   1.00
C19    C     0.29781   0.66527   0.50000   0.00000  Uiso   1.00
C20    C     0.29929   0.63108   0.50000   0.00000  Uiso   1.00
C21    C     0.26467   0.59622   0.50000   0.00000  Uiso   1.00
C22    C     0.26180   0.66257   0.50000   0.00000  Uiso   1.00
C23    C     0.23026   0.59507   0.50000   0.00000  Uiso   1.00
C24    C     0.22884   0.62788   0.50000   0.00000  Uiso   1.00
C25    C     0.33178   0.70071   0.50000   0.00000  Uiso   1.00
C26    C     0.36745   0.70219   0.50000   0.00000  Uiso   1.00
C27    C     0.40077   0.73820   0.50000   0.00000  Uiso   1.00
C28    C     0.33154   0.73533   0.50000   0.00000  Uiso   1.00
C29    C     0.39904   0.77116   0.50000   0.00000  Uiso   1.00
C30    C     0.36481   0.76974   0.50000   0.00000  Uiso   1.00
C31    C     0.33473   0.63255   0.50000   0.00000  Uiso   1.00
C32    C     0.36892   0.66822   0.50000   0.00000  Uiso   1.00
C33    C     0.40378   0.66845   0.50000   0.00000  Uiso   1.00
C34    C     0.33743   0.59923   0.50000   0.00000  Uiso   1.00
C35    C     0.40492   0.63519   0.50000   0.00000  Uiso   1.00
C36    C     0.37212   0.60096   0.50000   0.00000  Uiso   1.00
O37    O     0.80695   0.37943   0.50000   0.00000  Uiso   1.00
O38    O     0.63061   0.19546   0.50000   0.00000  Uiso   1.00
O39    O     0.62057   0.42753   0.50000   0.00000  Uiso   1.00
O40    O     0.80454   0.43515   0.50000   0.00000  Uiso   1.00
O41    O     0.57247   0.19305   0.50000   0.00000  Uiso   1.00
O42    O     0.56484   0.36939   0.50000   0.00000  Uiso   1.00
O43    O     0.19305   0.62057   0.50000   0.00000  Uiso   1.00
O44    O     0.36939   0.80454   0.50000   0.00000  Uiso   1.00
O45    O     0.37943   0.57247   0.50000   0.00000  Uiso   1.00
O46    O     0.19546   0.56484   0.50000   0.00000  Uiso   1.00
O47    O     0.42753   0.80695   0.50000   0.00000  Uiso   1.00
O48    O     0.43515   0.63061   0.50000   0.00000  Uiso   1.00
B49    B     0.82921   0.41977   0.50000   0.00000  Uiso   1.00
B50    B     0.58023   0.40944   0.50000   0.00000  Uiso   1.00
B51    B     0.59056   0.17079   0.50000   0.00000  Uiso   1.00
B52    B     0.17079   0.58023   0.50000   0.00000  Uiso   1.00
B53    B     0.41977   0.59056   0.50000   0.00000  Uiso   1.00
B54    B     0.40944   0.82921   0.50000   0.00000  Uiso   1.00
H55    H     0.73708   0.42924   0.50000   0.00000  Uiso   1.00
H56    H     0.57292   0.25797   0.50000   0.00000  Uiso   1.00
H57    H     0.57076   0.30784   0.50000   0.00000  Uiso   1.00
H58    H     0.74203   0.31494   0.50000   0.00000  Uiso   1.00
H59    H     0.69216   0.26292   0.50000   0.00000  Uiso   1.00
H60    H     0.68506   0.42708   0.50000   0.00000  Uiso   1.00
H61    H     0.26292   0.57076   0.50000   0.00000  Uiso   1.00
H62    H     0.42708   0.74203   0.50000   0.00000  Uiso   1.00
H63    H     0.42924   0.69216   0.50000   0.00000  Uiso   1.00
H64    H     0.25797   0.68506   0.50000   0.00000  Uiso   1.00
H65    H     0.30784   0.73708   0.50000   0.00000  Uiso   1.00
H66    H     0.31494   0.57292   0.50000   0.00000  Uiso   1.00
C67    C     0.12913   0.55808   0.50000   0.00000  Uiso   1.00
C68    C     0.10785   0.57632   0.50000   0.00000  Uiso   1.00
C69    C     0.11034   0.51854   0.50000   0.00000  Uiso   1.00
C70    C     0.06845   0.55535   0.50000   0.00000  Uiso   1.00
C71    C     0.07094   0.49761   0.50000   0.00000  Uiso   1.00
C72    C     0.04961   0.51575   0.50000   0.00000  Uiso   1.00
N73    N     0.01189   0.49403   0.50000   0.00000  Uiso   1.00
C74    C     0.44192   0.57105   0.50000   0.00000  Uiso   1.00
C75    C     0.55808   0.42895   0.50000   0.00000  Uiso   1.00
C76    C     0.42368   0.53153   0.50000   0.00000  Uiso   1.00
C77    C     0.48146   0.59180   0.50000   0.00000  Uiso   1.00
C78    C     0.57632   0.46847   0.50000   0.00000  Uiso   1.00
C79    C     0.51854   0.40820   0.50000   0.00000  Uiso   1.00
C80    C     0.44464   0.51309   0.50000   0.00000  Uiso   1.00
C81    C     0.50239   0.57333   0.50000   0.00000  Uiso   1.00
C82    C     0.55535   0.48691   0.50000   0.00000  Uiso   1.00
C83    C     0.49761   0.42667   0.50000   0.00000  Uiso   1.00
C84    C     0.48425   0.53386   0.50000   0.00000  Uiso   1.00
C85    C     0.51575   0.46614   0.50000   0.00000  Uiso   1.00
N86    N     0.49403   0.48214   0.50000   0.00000  Uiso   1.00
N87    N     0.50597   0.51786   0.50000   0.00000  Uiso   1.00
C88    C     0.42895   0.87087   0.50000   0.00000  Uiso   1.00
C89    C     0.40820   0.88965   0.50000   0.00000  Uiso   1.00
C90    C     0.46847   0.89215   0.50000   0.00000  Uiso   1.00
C91    C     0.42667   0.92906   0.50000   0.00000  Uiso   1.00
C92    C     0.48691   0.93155   0.50000   0.00000  Uiso   1.00
C93    C     0.46614   0.95039   0.50000   0.00000  Uiso   1.00
N94    N     0.48214   0.98811   0.50000   0.00000  Uiso   1.00
C95    C     0.87087   0.44192   0.50000   0.00000  Uiso   1.00
C96    C     0.89215   0.42368   0.50000   0.00000  Uiso   1.00
C97    C     0.88965   0.48146   0.50000   0.00000  Uiso   1.00
C98    C     0.93155   0.44464   0.50000   0.00000  Uiso   1.00
C99    C     0.92906   0.50239   0.50000   0.00000  Uiso   1.00
C100   C     0.95039   0.48425   0.50000   0.00000  Uiso   1.00
N101   N     0.98811   0.50597   0.50000   0.00000  Uiso   1.00
C102   C     0.57105   0.12913   0.50000   0.00000  Uiso   1.00
C103   C     0.59180   0.11034   0.50000   0.00000  Uiso   1.00
C104   C     0.53153   0.10785   0.50000   0.00000  Uiso   1.00
C105   C     0.57333   0.07094   0.50000   0.00000  Uiso   1.00
C106   C     0.51309   0.06845   0.50000   0.00000  Uiso   1.00
C107   C     0.53386   0.04961   0.50000   0.00000  Uiso   1.00
N108   N     0.51786   0.01189   0.50000   0.00000  Uiso   1.00
H109   H     0.12076   0.60495   0.50000   0.00000  Uiso   1.00
H110   H     0.12508   0.50461   0.50000   0.00000  Uiso   1.00
H111   H     0.05366   0.56922   0.50000   0.00000  Uiso   1.00
H112   H     0.05789   0.46896   0.50000   0.00000  Uiso   1.00
H113   H     0.37952   0.87491   0.50000   0.00000  Uiso   1.00
H114   H     0.48419   0.87924   0.50000   0.00000  Uiso   1.00
H115   H     0.41106   0.94211   0.50000   0.00000  Uiso   1.00
H116   H     0.51556   0.94634   0.50000   0.00000  Uiso   1.00
H117   H     0.39505   0.51581   0.50000   0.00000  Uiso   1.00
H118   H     0.49539   0.62048   0.50000   0.00000  Uiso   1.00
H119   H     0.60495   0.48419   0.50000   0.00000  Uiso   1.00
H120   H     0.50461   0.37952   0.50000   0.00000  Uiso   1.00
H121   H     0.43078   0.48444   0.50000   0.00000  Uiso   1.00
H122   H     0.53104   0.58894   0.50000   0.00000  Uiso   1.00
H123   H     0.56922   0.51556   0.50000   0.00000  Uiso   1.00
H124   H     0.46896   0.41106   0.50000   0.00000  Uiso   1.00
H125   H     0.87924   0.39505   0.50000   0.00000  Uiso   1.00
H126   H     0.87491   0.49539   0.50000   0.00000  Uiso   1.00
H127   H     0.94634   0.43078   0.50000   0.00000  Uiso   1.00
H128   H     0.94211   0.53104   0.50000   0.00000  Uiso   1.00
H129   H     0.62048   0.12508   0.50000   0.00000  Uiso   1.00
H130   H     0.51581   0.12076   0.50000   0.00000  Uiso   1.00
H131   H     0.58894   0.05789   0.50000   0.00000  Uiso   1.00
H132   H     0.48444   0.05366   0.50000   0.00000  Uiso   1.00
loop_
_geom_bond_atom_site_label_1
_geom_bond_atom_site_label_2
_geom_bond_distance
_geom_bond_site_symmetry_2
_ccdc_geom_bond_type
C1     C7      1.431   .     S
C1     C4      1.431   .     S
C1     C2      1.440   .     S
C2     C13     1.431   .     S
C2     C3      1.431   .     S
C3     H55     1.015   .     S
C3     C5      1.395   .     S
C4     H58     1.015   .     S
C4     C6      1.395   .     S
C5     O40     1.350   .     S
C5     C6      1.382   .     S
C6     O37     1.350   .     S
C7     C10     1.431   .     S
C7     C8      1.440   .     S
C8     C9      1.431   .     S
C8     C14     1.431   .     S
C9     H56     1.015   .     S
C9     C11     1.395   .     S
C10    H59     1.015   .     S
C10    C12     1.395   .     S
C11    C12     1.382   .     S
C11    O41     1.350   .     S
C12    O38     1.350   .     S
C13    C16     1.431   .     S
C13    C14     1.440   .     S
C14    C15     1.431   .     S
C15    H57     1.015   .     S
C15    C17     1.395   .     S
C16    H60     1.015   .     S
C16    C18     1.395   .     S
C17    O42     1.350   .     S
C17    C18     1.382   .     S
C18    O39     1.350   .     S
C19    C22     1.431   .     S
C19    C25     1.431   .     S
C19    C20     1.440   .     S
C20    C21     1.431   .     S
C20    C31     1.431   .     S
C21    H61     1.015   .     S
C21    C23     1.395   .     S
C22    H64     1.015   .     S
C22    C24     1.395   .     S
C23    O46     1.350   .     S
C23    C24     1.382   .     S
C24    O43     1.350   .     S
C25    C28     1.431   .     S
C25    C26     1.440   .     S
C26    C27     1.431   .     S
C26    C32     1.431   .     S
C27    H62     1.015   .     S
C27    C29     1.395   .     S
C28    H65     1.015   .     S
C28    C30     1.395   .     S
C29    C30     1.382   .     S
C29    O47     1.350   .     S
C30    O44     1.350   .     S
C31    C34     1.431   .     S
C31    C32     1.440   .     S
C32    C33     1.431   .     S
C33    H63     1.015   .     S
C33    C35     1.395   .     S
C34    C36     1.395   .     S
C34    H66     1.015   .     S
C35    O48     1.350   .     S
C35    C36     1.382   .     S
C36    O45     1.350   .     S
O37    B49     1.442   .     S
O38    B51     1.442   .     S
O39    B50     1.442   .     S
O40    B49     1.442   .     S
O41    B51     1.442   .     S
O42    B50     1.442   .     S
O43    B52     1.442   .     S
O44    B54     1.442   .     S
O45    B53     1.442   .     S
O46    B52     1.442   .     S
O47    B54     1.442   .     S
O48    B53     1.442   .     S
B49    C95     1.487   .     S
B50    C75     1.487   .     S
B51    C102    1.487   .     S
B52    C67     1.487   .     S
B53    C74     1.487   .     S
B54    C88     1.487   .     S
C67    C68     1.411   .     S
C67    C69     1.411   .     S
C68    C70     1.407   .     S
C68    H109    1.023   .     S
C69    C71     1.407   .     S
C69    H110    1.023   .     S
C70    H111    1.022   .     S
C70    C72     1.414   .     S
C71    C72     1.410   .     S
C71    H112    1.024   .     S
C72    N73     1.351   .     S
C74    C77     1.411   .     S
C74    C76     1.411   .     S
C75    C79     1.411   .     S
C75    C78     1.411   .     S
C76    H117    1.023   .     S
C76    C80     1.407   .     S
C77    C81     1.407   .     S
C77    H118    1.023   .     S
C78    C82     1.407   .     S
C78    H119    1.023   .     S
C79    C83     1.407   .     S
C79    H120    1.023   .     S
C80    C84     1.414   .     S
C80    H121    1.022   .     S
C81    H122    1.024   .     S
C81    C84     1.410   .     S
C82    C85     1.414   .     S
C82    H123    1.022   .     S
C83    H124    1.024   .     S
C83    C85     1.410   .     S
C84    N87     1.351   .     S
C85    N86     1.351   .     S
N86    N87     1.297   .     S
C88    C89     1.411   .     S
C88    C90     1.411   .     S
C89    H113    1.023   .     S
C89    C91     1.407   .     S
C90    H114    1.023   .     S
C90    C92     1.407   .     S
C91    H115    1.024   .     S
C91    C93     1.410   .     S
C92    H116    1.022   .     S
C92    C93     1.414   .     S
C93    N94     1.351   .     S
C95    C96     1.411   .     S
C95    C97     1.411   .     S
C96    C98     1.407   .     S
C96    H125    1.023   .     S
C97    H126    1.023   .     S
C97    C99     1.407   .     S
C98    H127    1.022   .     S
C98    C100    1.414   .     S
C99    H128    1.024   .     S
C99    C100    1.410   .     S
C100   N101    1.351   .     S
C102   C104    1.411   .     S
C102   C103    1.411   .     S
C103   H129    1.023   .     S
C103   C105    1.407   .     S
C104   H130    1.023   .     S
C104   C106    1.407   .     S
C105   H131    1.024   .     S
C105   C107    1.410   .     S
C106   H132    1.022   .     S
C106   C107    1.414   .     S
C107   N108    1.351   .     S
