data_BDT-COF-DFT
_audit_creation_date              2016-12-13
_audit_creation_method            'Materials Studio'
_symmetry_space_group_name_H-M    'P1'
_symmetry_Int_Tables_number       1
_symmetry_cell_setting            triclinic
loop_
_symmetry_equiv_pos_as_xyz
  x,y,z
_cell_length_a                    36.9500
_cell_length_b                    36.9500
_cell_length_c                    3.5400
_cell_angle_alpha                 90.0000
_cell_angle_beta                  90.0000
_cell_angle_gamma                 120.0000
loop_
_atom_site_label
_atom_site_type_symbol
_atom_site_fract_x
_atom_site_fract_y
_atom_site_fract_z
_atom_site_U_iso_or_equiv
_atom_site_adp_type
_atom_site_occupancy
C1     C     0.70424   0.37347   0.50000   0.00000  Uiso   1.00
C2     C     0.70700   0.33638   0.50000   0.00000  Uiso   1.00
C3     C     0.74653   0.33917   0.50000   0.00000  Uiso   1.00
C4     C     0.78121   0.37799   0.50000   0.00000  Uiso   1.00
C5     C     0.77857   0.41440   0.50000   0.00000  Uiso   1.00
C6     C     0.74101   0.41307   0.50000   0.00000  Uiso   1.00
O1     O     0.81828   0.44890   0.50000   0.00000  Uiso   1.00
B1     B     0.84470   0.43198   0.50000   0.00000  Uiso   1.00
O2     O     0.82243   0.38816   0.50000   0.00000  Uiso   1.00
C7     C     0.89179   0.45592   0.50000   0.00000  Uiso   1.00
S1     S     0.92138   0.51037   0.50000   0.00000  Uiso   1.00
C8     C     0.96754   0.50842   0.50000   0.00000  Uiso   1.00
C9     C     0.95933   0.46616   0.50000   0.00000  Uiso   1.00
C10    C     0.91590   0.43730   0.50000   0.00000  Uiso   1.00
C11    C     0.00772   0.54220   0.50000   0.00000  Uiso   1.00
C12    C     0.62653   0.33077   0.50000   0.00000  Uiso   1.00
C13    C     0.66362   0.37062   0.50000   0.00000  Uiso   1.00
C14    C     0.66083   0.40736   0.50000   0.00000  Uiso   1.00
C15    C     0.62201   0.40321   0.50000   0.00000  Uiso   1.00
C16    C     0.58560   0.36417   0.50000   0.00000  Uiso   1.00
C17    C     0.58693   0.32793   0.50000   0.00000  Uiso   1.00
O3     O     0.55110   0.36939   0.50000   0.00000  Uiso   1.00
B2     B     0.56802   0.41273   0.50000   0.00000  Uiso   1.00
O4     O     0.61184   0.43427   0.50000   0.00000  Uiso   1.00
C18    C     0.54408   0.43587   0.50000   0.00000  Uiso   1.00
S2     S     0.48963   0.41102   0.50000   0.00000  Uiso   1.00
C19    C     0.49158   0.45912   0.50000   0.00000  Uiso   1.00
C20    C     0.53384   0.49317   0.50000   0.00000  Uiso   1.00
C21    C     0.56270   0.47860   0.50000   0.00000  Uiso   1.00
C22    C     0.45780   0.46552   0.50000   0.00000  Uiso   1.00
C23    C     0.66923   0.29576   0.50000   0.00000  Uiso   1.00
C24    C     0.62938   0.29300   0.50000   0.00000  Uiso   1.00
C25    C     0.59264   0.25347   0.50000   0.00000  Uiso   1.00
C26    C     0.59679   0.21879   0.50000   0.00000  Uiso   1.00
C27    C     0.63583   0.22143   0.50000   0.00000  Uiso   1.00
C28    C     0.67207   0.25899   0.50000   0.00000  Uiso   1.00
O5     O     0.63061   0.18172   0.50000   0.00000  Uiso   1.00
B3     B     0.58727   0.15530   0.50000   0.00000  Uiso   1.00
O6     O     0.56573   0.17757   0.50000   0.00000  Uiso   1.00
C29    C     0.56413   0.10821   0.50000   0.00000  Uiso   1.00
S3     S     0.58898   0.07862   0.50000   0.00000  Uiso   1.00
C30    C     0.54088   0.03246   0.50000   0.00000  Uiso   1.00
C31    C     0.50683   0.04067   0.50000   0.00000  Uiso   1.00
C32    C     0.52140   0.08410   0.50000   0.00000  Uiso   1.00
C33    C     0.53448   0.99228   0.50000   0.00000  Uiso   1.00
C34    C     0.29576   0.62653   0.50000   0.00000  Uiso   1.00
C35    C     0.29300   0.66362   0.50000   0.00000  Uiso   1.00
C36    C     0.25347   0.66083   0.50000   0.00000  Uiso   1.00
C37    C     0.21879   0.62201   0.50000   0.00000  Uiso   1.00
C38    C     0.22143   0.58560   0.50000   0.00000  Uiso   1.00
C39    C     0.25899   0.58693   0.50000   0.00000  Uiso   1.00
O7     O     0.18172   0.55110   0.50000   0.00000  Uiso   1.00
B4     B     0.15530   0.56802   0.50000   0.00000  Uiso   1.00
O8     O     0.17757   0.61184   0.50000   0.00000  Uiso   1.00
C40    C     0.10821   0.54408   0.50000   0.00000  Uiso   1.00
S4     S     0.07862   0.48963   0.50000   0.00000  Uiso   1.00
C41    C     0.03246   0.49158   0.50000   0.00000  Uiso   1.00
C42    C     0.04067   0.53384   0.50000   0.00000  Uiso   1.00
C43    C     0.08410   0.56270   0.50000   0.00000  Uiso   1.00
C44    C     0.99228   0.45780   0.50000   0.00000  Uiso   1.00
C45    C     0.37347   0.66923   0.50000   0.00000  Uiso   1.00
C46    C     0.33638   0.62938   0.50000   0.00000  Uiso   1.00
C47    C     0.33917   0.59264   0.50000   0.00000  Uiso   1.00
C48    C     0.37799   0.59679   0.50000   0.00000  Uiso   1.00
C49    C     0.41440   0.63583   0.50000   0.00000  Uiso   1.00
C50    C     0.41307   0.67207   0.50000   0.00000  Uiso   1.00
O9     O     0.44890   0.63061   0.50000   0.00000  Uiso   1.00
B5     B     0.43198   0.58727   0.50000   0.00000  Uiso   1.00
O10    O     0.38816   0.56573   0.50000   0.00000  Uiso   1.00
C51    C     0.45592   0.56413   0.50000   0.00000  Uiso   1.00
S5     S     0.51037   0.58898   0.50000   0.00000  Uiso   1.00
C52    C     0.50842   0.54088   0.50000   0.00000  Uiso   1.00
C53    C     0.46616   0.50683   0.50000   0.00000  Uiso   1.00
C54    C     0.43730   0.52140   0.50000   0.00000  Uiso   1.00
C55    C     0.54220   0.53448   0.50000   0.00000  Uiso   1.00
C56    C     0.33077   0.70424   0.50000   0.00000  Uiso   1.00
C57    C     0.37062   0.70700   0.50000   0.00000  Uiso   1.00
C58    C     0.40736   0.74653   0.50000   0.00000  Uiso   1.00
C59    C     0.40321   0.78121   0.50000   0.00000  Uiso   1.00
C60    C     0.36417   0.77857   0.50000   0.00000  Uiso   1.00
C61    C     0.32793   0.74101   0.50000   0.00000  Uiso   1.00
O11    O     0.36939   0.81828   0.50000   0.00000  Uiso   1.00
B6     B     0.41273   0.84470   0.50000   0.00000  Uiso   1.00
O12    O     0.43427   0.82243   0.50000   0.00000  Uiso   1.00
C62    C     0.43587   0.89179   0.50000   0.00000  Uiso   1.00
S6     S     0.41102   0.92138   0.50000   0.00000  Uiso   1.00
C63    C     0.45912   0.96754   0.50000   0.00000  Uiso   1.00
C64    C     0.49317   0.95933   0.50000   0.00000  Uiso   1.00
C65    C     0.47860   0.91590   0.50000   0.00000  Uiso   1.00
C66    C     0.46552   0.00772   0.50000   0.00000  Uiso   1.00
H1     H     0.75034   0.31188   0.50000   0.00000  Uiso   1.00
H2     H     0.74035   0.44210   0.50000   0.00000  Uiso   1.00
H3     H     0.90248   0.40349   0.50000   0.00000  Uiso   1.00
H4     H     0.01382   0.57429   0.50000   0.00000  Uiso   1.00
H5     H     0.68812   0.43846   0.50000   0.00000  Uiso   1.00
H6     H     0.55790   0.29825   0.50000   0.00000  Uiso   1.00
H7     H     0.59651   0.49898   0.50000   0.00000  Uiso   1.00
H8     H     0.42571   0.43953   0.50000   0.00000  Uiso   1.00
H9     H     0.56154   0.24966   0.50000   0.00000  Uiso   1.00
H10    H     0.70175   0.25965   0.50000   0.00000  Uiso   1.00
H11    H     0.50102   0.09752   0.50000   0.00000  Uiso   1.00
H12    H     0.56047   0.98618   0.50000   0.00000  Uiso   1.00
H13    H     0.24966   0.68812   0.50000   0.00000  Uiso   1.00
H14    H     0.25965   0.55790   0.50000   0.00000  Uiso   1.00
H15    H     0.09752   0.59651   0.50000   0.00000  Uiso   1.00
H16    H     0.98618   0.42571   0.50000   0.00000  Uiso   1.00
H17    H     0.31188   0.56154   0.50000   0.00000  Uiso   1.00
H18    H     0.44210   0.70175   0.50000   0.00000  Uiso   1.00
H19    H     0.40349   0.50102   0.50000   0.00000  Uiso   1.00
H20    H     0.57429   0.56047   0.50000   0.00000  Uiso   1.00
H21    H     0.43846   0.75034   0.50000   0.00000  Uiso   1.00
H22    H     0.29825   0.74035   0.50000   0.00000  Uiso   1.00
H23    H     0.49898   0.90248   0.50000   0.00000  Uiso   1.00
H24    H     0.43953   0.01382   0.50000   0.00000  Uiso   1.00
loop_
_geom_bond_atom_site_label_1
_geom_bond_atom_site_label_2
_geom_bond_distance
_geom_bond_site_symmetry_2
_ccdc_geom_bond_type
C1     C13     1.451   .     S
C1     C2      1.424   .     S
C1     C6      1.414   .     S
C2     C3      1.412   .     S
C2     C23     1.451   .     S
C3     H1      1.086   .     S
C3     C4      1.364   .     S
C4     O2      1.375   .     S
C4     C5      1.396   .     S
C5     C6      1.364   .     S
C5     O1      1.381   .     S
C6     H2      1.085   .     S
O1     B1      1.398   .     S
B1     O2      1.402   .     S
B1     C7      1.507   .     S
C7     S1      1.745   .     S
C7     C10     1.371   .     S
S1     C8      1.743   .     S
C8     C9      1.434   .     S
C9     C44     1.398   .     S
C9     C10     1.414   .     S
C10    H3      1.089   .     S
C11    H4      1.091   .     S
C11    C42     1.398   .     S
C12    C13     1.424   .     S
C12    C17     1.414   .     S
C12    C24     1.451   .     S
C13    C14     1.412   .     S
C14    H5      1.086   .     S
C14    C15     1.364   .     S
C15    O4      1.375   .     S
C15    C16     1.396   .     S
C16    C17     1.364   .     S
C16    O3      1.381   .     S
C17    H6      1.085   .     S
O3     B2      1.398   .     S
B2     C18     1.507   .     S
B2     O4      1.402   .     S
C18    S2      1.745   .     S
C18    C21     1.371   .     S
S2     C19     1.743   .     S
C19    C20     1.434   .     S
C19    C22     1.382   .     S
C20    C21     1.414   .     S
C20    C55     1.398   .     S
C21    H7      1.089   .     S
C22    C53     1.398   .     S
C22    H8      1.091   .     S
C23    C28     1.414   .     S
C23    C24     1.424   .     S
C24    C25     1.412   .     S
C25    H9      1.086   .     S
C25    C26     1.364   .     S
C26    O6      1.375   .     S
C26    C27     1.396   .     S
C27    O5      1.381   .     S
C27    C28     1.364   .     S
C28    H10     1.085   .     S
O5     B3      1.398   .     S
B3     O6      1.402   .     S
B3     C29     1.507   .     S
C29    C32     1.371   .     S
C29    S3      1.745   .     S
S3     C30     1.743   .     S
C30    C31     1.434   .     S
C31    C66     1.398   .     S
C31    C32     1.414   .     S
C32    H11     1.089   .     S
C33    H12     1.091   .     S
C33    C64     1.398   .     S
C34    C35     1.424   .     S
C34    C46     1.451   .     S
C34    C39     1.414   .     S
C35    C36     1.412   .     S
C35    C56     1.451   .     S
C36    C37     1.364   .     S
C36    H13     1.086   .     S
C37    O8      1.375   .     S
C37    C38     1.396   .     S
C38    O7      1.381   .     S
C38    C39     1.364   .     S
C39    H14     1.085   .     S
O7     B4      1.398   .     S
B4     C40     1.507   .     S
B4     O8      1.402   .     S
C40    C43     1.371   .     S
C40    S4      1.745   .     S
S4     C41     1.743   .     S
C41    C42     1.434   .     S
C42    C43     1.414   .     S
C43    H15     1.089   .     S
C44    H16     1.091   .     S
C45    C46     1.424   .     S
C45    C50     1.414   .     S
C45    C57     1.451   .     S
C46    C47     1.412   .     S
C47    H17     1.086   .     S
C47    C48     1.364   .     S
C48    O10     1.375   .     S
C48    C49     1.396   .     S
C49    C50     1.364   .     S
C49    O9      1.381   .     S
C50    H18     1.085   .     S
O9     B5      1.398   .     S
B5     C51     1.507   .     S
B5     O10     1.402   .     S
C51    S5      1.745   .     S
C51    C54     1.371   .     S
S5     C52     1.743   .     S
C52    C55     1.382   .     S
C52    C53     1.434   .     S
C53    C54     1.414   .     S
C54    H19     1.089   .     S
C55    H20     1.091   .     S
C56    C61     1.414   .     S
C56    C57     1.424   .     S
C57    C58     1.412   .     S
C58    C59     1.364   .     S
C58    H21     1.086   .     S
C59    C60     1.396   .     S
C59    O12     1.375   .     S
C60    O11     1.381   .     S
C60    C61     1.364   .     S
C61    H22     1.085   .     S
O11    B6      1.398   .     S
B6     C62     1.507   .     S
B6     O12     1.402   .     S
C62    S6      1.745   .     S
C62    C65     1.371   .     S
S6     C63     1.743   .     S
C63    C64     1.434   .     S
C64    C65     1.414   .     S
C65    H23     1.089   .     S
C66    H24     1.091   .     S
