data_BF-COF-2
_audit_creation_date              2016-12-13
_audit_creation_method            'Materials Studio'
_symmetry_space_group_name_H-M    'P1'
_symmetry_Int_Tables_number       1
_symmetry_cell_setting            triclinic
loop_
_symmetry_equiv_pos_as_xyz
  x,y,z
_cell_length_a                    16.2317
_cell_length_b                    16.2317
_cell_length_c                    16.2521
_cell_angle_alpha                 90.0000
_cell_angle_beta                  90.0000
_cell_angle_gamma                 90.0000
loop_
_atom_site_label
_atom_site_type_symbol
_atom_site_fract_x
_atom_site_fract_y
_atom_site_fract_z
_atom_site_U_iso_or_equiv
_atom_site_adp_type
_atom_site_occupancy
C1     C     0.34635   0.61037   0.34230   0.00000  Uiso   1.00
C2     C     0.65365   0.38963   0.34230   0.00000  Uiso   1.00
C3     C     0.61037   0.65365   0.65770   0.00000  Uiso   1.00
C4     C     0.38963   0.34635   0.65770   0.00000  Uiso   1.00
H1     H     0.31158   0.55891   0.35324   0.00000  Uiso   1.00
H2     H     0.68842   0.44109   0.35324   0.00000  Uiso   1.00
H3     H     0.55891   0.68842   0.64676   0.00000  Uiso   1.00
H4     H     0.44109   0.31158   0.64676   0.00000  Uiso   1.00
C5     C     0.83933   0.33764   0.10657   0.00000  Uiso   1.00
C6     C     0.16067   0.66236   0.10657   0.00000  Uiso   1.00
C7     C     0.33764   0.16067   0.89343   0.00000  Uiso   1.00
C8     C     0.66236   0.83933   0.89343   0.00000  Uiso   1.00
H5     H     0.84921   0.30563   0.05315   0.00000  Uiso   1.00
H6     H     0.15079   0.69437   0.05315   0.00000  Uiso   1.00
H7     H     0.30563   0.15079   0.94685   0.00000  Uiso   1.00
H8     H     0.69437   0.84921   0.94685   0.00000  Uiso   1.00
C9     C     0.84440   0.59891   0.84566   0.00000  Uiso   1.00
C10    C     0.15560   0.40109   0.84566   0.00000  Uiso   1.00
C11    C     0.59891   0.15560   0.15434   0.00000  Uiso   1.00
C12    C     0.40109   0.84440   0.15434   0.00000  Uiso   1.00
N1     N     0.89258   0.61308   0.91239   0.00000  Uiso   1.00
N2     N     0.10742   0.38692   0.91239   0.00000  Uiso   1.00
N3     N     0.61308   0.10742   0.08761   0.00000  Uiso   1.00
N4     N     0.38692   0.89258   0.08761   0.00000  Uiso   1.00
H9     H     0.85369   0.54518   0.81391   0.00000  Uiso   1.00
H10    H     0.14631   0.45482   0.81391   0.00000  Uiso   1.00
H11    H     0.54518   0.14631   0.18609   0.00000  Uiso   1.00
H12    H     0.45482   0.85369   0.18609   0.00000  Uiso   1.00
H13    H     0.88480   0.66679   0.93780   0.00000  Uiso   1.00
H14    H     0.11520   0.33321   0.93780   0.00000  Uiso   1.00
H15    H     0.66679   0.11520   0.06220   0.00000  Uiso   1.00
H16    H     0.33321   0.88480   0.06220   0.00000  Uiso   1.00
N5     N     0.62118   0.58565   0.61030   0.00000  Uiso   1.00
N6     N     0.37882   0.41435   0.61030   0.00000  Uiso   1.00
N7     N     0.58565   0.37882   0.38970   0.00000  Uiso   1.00
N8     N     0.41435   0.62118   0.38970   0.00000  Uiso   1.00
H17    H     0.67265   0.55615   0.61947   0.00000  Uiso   1.00
H18    H     0.32735   0.44385   0.61947   0.00000  Uiso   1.00
H19    H     0.55615   0.32735   0.38053   0.00000  Uiso   1.00
H20    H     0.44385   0.67265   0.38053   0.00000  Uiso   1.00
N9     N     0.59626   0.88826   0.87853   0.00000  Uiso   1.00
N10    N     0.40374   0.11174   0.87853   0.00000  Uiso   1.00
N11    N     0.88826   0.40374   0.12147   0.00000  Uiso   1.00
N12    N     0.11174   0.59626   0.12147   0.00000  Uiso   1.00
H21    H     0.57061   0.88006   0.82506   0.00000  Uiso   1.00
H22    H     0.42939   0.11994   0.82506   0.00000  Uiso   1.00
H23    H     0.88006   0.42939   0.17494   0.00000  Uiso   1.00
H24    H     0.11994   0.57061   0.17494   0.00000  Uiso   1.00
C13    C     0.60966   0.48548   0.50078   0.00000  Uiso   1.00
C14    C     0.39034   0.51452   0.50078   0.00000  Uiso   1.00
C15    C     0.48548   0.39034   0.49922   0.00000  Uiso   1.00
C16    C     0.51452   0.60966   0.49922   0.00000  Uiso   1.00
C17    C     0.00246   0.61069   0.01109   0.00000  Uiso   1.00
C18    C     0.99754   0.38931   0.01109   0.00000  Uiso   1.00
C19    C     0.61069   0.99754   0.98891   0.00000  Uiso   1.00
C20    C     0.38931   0.00246   0.98891   0.00000  Uiso   1.00
C21    C     0.50000   0.00000   0.10017   0.00000  Uiso   1.00
C22    C     0.00000   0.50000   0.89983   0.00000  Uiso   1.00
C23    C     0.50000   0.00000   0.87901   0.00000  Uiso   1.00
C24    C     0.00000   0.50000   0.12099   0.00000  Uiso   1.00
C25    C     0.54827   0.43759   0.44371   0.00000  Uiso   1.00
C26    C     0.45173   0.56241   0.44371   0.00000  Uiso   1.00
C27    C     0.43759   0.45173   0.55629   0.00000  Uiso   1.00
C28    C     0.56241   0.54827   0.55629   0.00000  Uiso   1.00
C29    C     0.94514   0.55704   0.95516   0.00000  Uiso   1.00
C30    C     0.05486   0.44296   0.95516   0.00000  Uiso   1.00
C31    C     0.55704   0.05486   0.04484   0.00000  Uiso   1.00
C32    C     0.44296   0.94514   0.04484   0.00000  Uiso   1.00
C33    C     0.94254   0.44556   0.06652   0.00000  Uiso   1.00
C34    C     0.05746   0.55444   0.06652   0.00000  Uiso   1.00
C35    C     0.44556   0.05746   0.93348   0.00000  Uiso   1.00
C36    C     0.55444   0.94254   0.93348   0.00000  Uiso   1.00
H25    H     0.51955   0.34529   0.53561   0.00000  Uiso   1.00
H26    H     0.48045   0.65471   0.53561   0.00000  Uiso   1.00
H27    H     0.34529   0.48045   0.46439   0.00000  Uiso   1.00
H28    H     0.65471   0.51955   0.46439   0.00000  Uiso   1.00
H29    H     0.44145   0.35602   0.46161   0.00000  Uiso   1.00
H30    H     0.55855   0.64398   0.46161   0.00000  Uiso   1.00
H31    H     0.35602   0.55855   0.53839   0.00000  Uiso   1.00
H32    H     0.64398   0.44145   0.53839   0.00000  Uiso   1.00
H33    H     0.03790   0.53869   0.86012   0.00000  Uiso   1.00
H34    H     0.96210   0.46131   0.86012   0.00000  Uiso   1.00
H35    H     0.53869   0.96210   0.13988   0.00000  Uiso   1.00
H36    H     0.46131   0.03790   0.13988   0.00000  Uiso   1.00
H37    H     0.03668   0.46021   0.16118   0.00000  Uiso   1.00
H38    H     0.96332   0.53979   0.16118   0.00000  Uiso   1.00
H39    H     0.46021   0.96332   0.83882   0.00000  Uiso   1.00
H40    H     0.53979   0.03668   0.83882   0.00000  Uiso   1.00
H41    H     0.35029   0.04066   0.02814   0.00000  Uiso   1.00
H42    H     0.64971   0.95934   0.02814   0.00000  Uiso   1.00
H43    H     0.04066   0.64971   0.97186   0.00000  Uiso   1.00
H44    H     0.95934   0.35029   0.97186   0.00000  Uiso   1.00
H45    H     0.65162   0.03390   0.94973   0.00000  Uiso   1.00
H46    H     0.34838   0.96610   0.94973   0.00000  Uiso   1.00
H47    H     0.03390   0.34838   0.05027   0.00000  Uiso   1.00
H48    H     0.96610   0.65162   0.05027   0.00000  Uiso   1.00
H49    H     0.54276   0.53313   0.34923   0.00000  Uiso   1.00
H50    H     0.45724   0.46687   0.34923   0.00000  Uiso   1.00
H51    H     0.53313   0.45724   0.65077   0.00000  Uiso   1.00
H52    H     0.46687   0.54276   0.65077   0.00000  Uiso   1.00
H53    H     0.85029   0.54209   0.04954   0.00000  Uiso   1.00
H54    H     0.14971   0.45791   0.04954   0.00000  Uiso   1.00
H55    H     0.54209   0.14971   0.95046   0.00000  Uiso   1.00
H56    H     0.45791   0.85029   0.95046   0.00000  Uiso   1.00
H57    H     0.84803   0.46559   0.97311   0.00000  Uiso   1.00
H58    H     0.15197   0.53441   0.97311   0.00000  Uiso   1.00
H59    H     0.46559   0.15197   0.02689   0.00000  Uiso   1.00
H60    H     0.53441   0.84803   0.02689   0.00000  Uiso   1.00
C37    C     0.75647   0.72453   0.86364   0.00000  Uiso   1.00
C38    C     0.24353   0.27547   0.86364   0.00000  Uiso   1.00
C39    C     0.72453   0.24353   0.13636   0.00000  Uiso   1.00
C40    C     0.27547   0.75647   0.13636   0.00000  Uiso   1.00
C41    C     0.36874   0.73250   0.25082   0.00000  Uiso   1.00
C42    C     0.63126   0.26750   0.25082   0.00000  Uiso   1.00
C43    C     0.73250   0.63126   0.74918   0.00000  Uiso   1.00
C44    C     0.26750   0.36874   0.74918   0.00000  Uiso   1.00
C45    C     0.35701   0.25065   0.76977   0.00000  Uiso   1.00
C46    C     0.64299   0.74935   0.76977   0.00000  Uiso   1.00
C47    C     0.25065   0.64299   0.23023   0.00000  Uiso   1.00
C48    C     0.74935   0.35701   0.23023   0.00000  Uiso   1.00
C49    C     0.77972   0.65232   0.81973   0.00000  Uiso   1.00
C50    C     0.22028   0.34768   0.81973   0.00000  Uiso   1.00
C51    C     0.65232   0.22028   0.18027   0.00000  Uiso   1.00
C52    C     0.34768   0.77972   0.18027   0.00000  Uiso   1.00
C53    C     0.22696   0.68714   0.15852   0.00000  Uiso   1.00
C54    C     0.77304   0.31286   0.15852   0.00000  Uiso   1.00
C55    C     0.68714   0.77304   0.84148   0.00000  Uiso   1.00
C56    C     0.31286   0.22696   0.84148   0.00000  Uiso   1.00
C57    C     0.67773   0.33713   0.27635   0.00000  Uiso   1.00
C58    C     0.32227   0.66287   0.27635   0.00000  Uiso   1.00
C59    C     0.33713   0.32227   0.72365   0.00000  Uiso   1.00
C60    C     0.66287   0.67773   0.72365   0.00000  Uiso   1.00
O1     O     0.79662   0.74656   0.92601   0.00000  Uiso   1.00
O2     O     0.20338   0.25344   0.92601   0.00000  Uiso   1.00
O3     O     0.74656   0.20338   0.07399   0.00000  Uiso   1.00
O4     O     0.25344   0.79662   0.07399   0.00000  Uiso   1.00
O5     O     0.43214   0.75289   0.29031   0.00000  Uiso   1.00
O6     O     0.56786   0.24711   0.29031   0.00000  Uiso   1.00
O7     O     0.75289   0.56786   0.70969   0.00000  Uiso   1.00
O8     O     0.24711   0.43214   0.70969   0.00000  Uiso   1.00
O9     O     0.41761   0.20862   0.74615   0.00000  Uiso   1.00
O10    O     0.58239   0.79138   0.74615   0.00000  Uiso   1.00
O11    O     0.20862   0.58239   0.25385   0.00000  Uiso   1.00
O12    O     0.79138   0.41761   0.25385   0.00000  Uiso   1.00
C61    C     0.88920   0.50279   0.01111   0.00000  Uiso   1.00
C62    C     0.11080   0.49721   0.01111   0.00000  Uiso   1.00
C63    C     0.50279   0.11080   0.98889   0.00000  Uiso   1.00
C64    C     0.49721   0.88920   0.98889   0.00000  Uiso   1.00
C65    C     0.50000   0.50000   0.38925   0.00000  Uiso   1.00
C66    C     0.50000   0.50000   0.61075   0.00000  Uiso   1.00
loop_
_geom_bond_atom_site_label_1
_geom_bond_atom_site_label_2
_geom_bond_distance
_geom_bond_site_symmetry_2
_ccdc_geom_bond_type
C1     N8      1.357   .     S
C1     H1      1.024   .     S
C1     C58     1.424   .     S
C2     N7      1.357   .     S
C2     H2      1.024   .     S
C2     C57     1.424   .     S
C3     C60     1.424   .     S
C3     H3      1.024   .     S
C3     N5      1.357   .     S
C4     C59     1.424   .     S
C4     N6      1.357   .     S
C4     H4      1.024   .     S
C5     H5      1.024   .     S
C5     N11     1.357   .     S
C5     C54     1.426   .     S
C6     H6      1.024   .     S
C6     C53     1.426   .     S
C6     N12     1.357   .     S
C7     N10     1.357   .     S
C7     H7      1.024   .     S
C7     C56     1.426   .     S
C8     H8      1.024   .     S
C8     N9      1.357   .     S
C8     C55     1.426   .     S
C9     C49     1.425   .     S
C9     H9      1.025   .     S
C9     N1      1.357   .     S
C10    C50     1.425   .     S
C10    H10     1.025   .     S
C10    N2      1.357   .     S
C11    H11     1.025   .     S
C11    C51     1.425   .     S
C11    N3      1.357   .     S
C12    C52     1.425   .     S
C12    H12     1.025   .     S
C12    N4      1.357   .     S
N1     C29     1.428   .     S
N1     H13     0.973   .     S
N2     H14     0.973   .     S
N2     C30     1.428   .     S
N3     C31     1.428   .     S
N3     H15     0.973   .     S
N4     H16     0.973   .     S
N4     C32     1.428   .     S
N5     C28     1.431   .     S
N5     H17     0.974   .     S
N6     H18     0.974   .     S
N6     C27     1.431   .     S
N7     H19     0.974   .     S
N7     C25     1.431   .     S
N8     H20     0.974   .     S
N8     C26     1.431   .     S
N9     C36     1.426   .     S
N9     H21     0.973   .     S
N10    C35     1.426   .     S
N10    H22     0.973   .     S
N11    H23     0.973   .     S
N11    C33     1.426   .     S
N12    H24     0.973   .     S
N12    C34     1.426   .     S
C13    C25     1.568   .     S
C13    H32     1.093   .     S
C13    H28     1.091   .     S
C13    C28     1.562   .     S
C14    H27     1.091   .     S
C14    H31     1.093   .     S
C14    C26     1.568   .     S
C14    C27     1.562   .     S
C15    H25     1.091   .     S
C15    H29     1.093   .     S
C15    C25     1.562   .     S
C15    C27     1.568   .     S
C16    C26     1.562   .     S
C16    H30     1.093   .     S
C16    H26     1.091   .     S
C16    C28     1.568   .     S
C17    C34     1.563   .     S
C18    C33     1.563   .     S
C19    C36     1.563   .     S
C20    C35     1.563   .     S
C21    C31     1.568   .     S
C21    H36     1.091   .     S
C22    C30     1.568   .     S
C22    H33     1.091   .     S
C23    C35     1.560   .     S
C23    H40     1.095   .     S
C24    H37     1.095   .     S
C24    C34     1.560   .     S
C25    C65     1.557   .     S
C26    C65     1.557   .     S
C27    C66     1.557   .     S
C28    C66     1.557   .     S
C33    C61     1.557   .     S
C34    C62     1.557   .     S
C35    C63     1.557   .     S
C36    C64     1.557   .     S
H49    C65     1.093   .     S
H50    C65     1.093   .     S
H51    C66     1.093   .     S
H52    C66     1.093   .     S
H53    C61     1.094   .     S
H54    C62     1.094   .     S
H55    C63     1.094   .     S
H56    C64     1.094   .     S
C37    C55     1.420   .     S
C37    C49     1.423   .     S
C37    O1      1.257   .     S
C38    C56     1.420   .     S
C38    C50     1.423   .     S
C38    O2      1.257   .     S
C39    C51     1.423   .     S
C39    C54     1.420   .     S
C39    O3      1.257   .     S
C40    C53     1.420   .     S
C40    C52     1.423   .     S
C40    O4      1.257   .     S
C41    O5      1.257   .     S
C41    C58     1.421   .     S
C41    C52     1.421   .     S
C42    O6      1.257   .     S
C42    C57     1.421   .     S
C42    C51     1.421   .     S
C43    O7      1.257   .     S
C43    C60     1.421   .     S
C43    C49     1.421   .     S
C44    O8      1.257   .     S
C44    C59     1.421   .     S
C44    C50     1.421   .     S
C45    C56     1.421   .     S
C45    C59     1.420   .     S
C45    O9      1.257   .     S
C46    C55     1.421   .     S
C46    O10     1.257   .     S
C46    C60     1.420   .     S
C47    O11     1.257   .     S
C47    C58     1.420   .     S
C47    C53     1.421   .     S
C48    C57     1.420   .     S
C48    O12     1.257   .     S
C48    C54     1.421   .     S
