data_BF-COF-1
_audit_creation_date              2016-12-13
_audit_creation_method            'Materials Studio'
_symmetry_space_group_name_H-M    'P1'
_symmetry_Int_Tables_number       1
_symmetry_cell_setting            triclinic
loop_
_symmetry_equiv_pos_as_xyz
  x,y,z
_cell_length_a                    16.1180
_cell_length_b                    16.1180
_cell_length_c                    16.1467
_cell_angle_alpha                 90.0000
_cell_angle_beta                  90.0000
_cell_angle_gamma                 90.0000
loop_
_atom_site_label
_atom_site_type_symbol
_atom_site_fract_x
_atom_site_fract_y
_atom_site_fract_z
_atom_site_U_iso_or_equiv
_atom_site_adp_type
_atom_site_occupancy
C1     C     0.34368   0.60286   0.33743   0.00000  Uiso   1.00
N2     N     0.40772   0.61815   0.38965   0.00000  Uiso   1.00
H3     H     0.31410   0.54684   0.34133   0.00000  Uiso   1.00
C4     C     0.83605   0.33705   0.10065   0.00000  Uiso   1.00
N5     N     0.88958   0.39913   0.11915   0.00000  Uiso   1.00
H6     H     0.83920   0.31022   0.04330   0.00000  Uiso   1.00
C7     C     0.83755   0.59335   0.84498   0.00000  Uiso   1.00
N8     N     0.89035   0.61097   0.90778   0.00000  Uiso   1.00
H9     H     0.83986   0.53576   0.81842   0.00000  Uiso   1.00
C10    C     0.65632   0.39715   0.33743   0.00000  Uiso   1.00
N11    N     0.59228   0.38185   0.38965   0.00000  Uiso   1.00
H12    H     0.68590   0.45317   0.34133   0.00000  Uiso   1.00
C13    C     0.16395   0.66295   0.10065   0.00000  Uiso   1.00
N14    N     0.11042   0.60088   0.11915   0.00000  Uiso   1.00
H15    H     0.16080   0.68978   0.04330   0.00000  Uiso   1.00
C16    C     0.16245   0.40665   0.84498   0.00000  Uiso   1.00
N17    N     0.10965   0.38904   0.90778   0.00000  Uiso   1.00
H18    H     0.16014   0.46424   0.81842   0.00000  Uiso   1.00
C19    C     0.60285   0.65632   0.66258   0.00000  Uiso   1.00
N20    N     0.61815   0.59228   0.61036   0.00000  Uiso   1.00
H21    H     0.54683   0.68590   0.65868   0.00000  Uiso   1.00
C22    C     0.33705   0.16395   0.89936   0.00000  Uiso   1.00
N23    N     0.39913   0.11042   0.88087   0.00000  Uiso   1.00
H24    H     0.31022   0.16080   0.95671   0.00000  Uiso   1.00
C25    C     0.59335   0.16245   0.15504   0.00000  Uiso   1.00
N26    N     0.61096   0.10965   0.09223   0.00000  Uiso   1.00
H27    H     0.53576   0.16015   0.18160   0.00000  Uiso   1.00
C28    C     0.39714   0.34369   0.66258   0.00000  Uiso   1.00
N29    N     0.38185   0.40772   0.61036   0.00000  Uiso   1.00
H30    H     0.45316   0.31411   0.65868   0.00000  Uiso   1.00
C31    C     0.66295   0.83605   0.89936   0.00000  Uiso   1.00
N32    N     0.60087   0.88958   0.88087   0.00000  Uiso   1.00
H33    H     0.68978   0.83920   0.95671   0.00000  Uiso   1.00
C34    C     0.40665   0.83756   0.15504   0.00000  Uiso   1.00
N35    N     0.38904   0.89035   0.09223   0.00000  Uiso   1.00
H36    H     0.46424   0.83986   0.18160   0.00000  Uiso   1.00
C37    C     0.61111   0.48962   0.50103   0.00000  Uiso   1.00
C38    C     0.99961   0.61167   0.00918   0.00000  Uiso   1.00
C39    C     0.38889   0.51039   0.50103   0.00000  Uiso   1.00
C40    C     0.00038   0.38834   0.00918   0.00000  Uiso   1.00
C41    C     0.48961   0.38890   0.49899   0.00000  Uiso   1.00
C42    C     0.61166   0.00039   0.99083   0.00000  Uiso   1.00
C43    C     0.51039   0.61111   0.49899   0.00000  Uiso   1.00
C44    C     0.38834   0.99962   0.99083   0.00000  Uiso   1.00
C45    C     0.50000   0.00000   0.10305   0.00000  Uiso   1.00
C46    C     0.50000   0.00000   0.88017   0.00000  Uiso   1.00
C47    C    -0.00000   0.50000   0.89696   0.00000  Uiso   1.00
C48    C    -0.00000   0.50000   0.11984   0.00000  Uiso   1.00
C49    C     0.55123   0.43908   0.44363   0.00000  Uiso   1.00
C50    C     0.94368   0.55625   0.95259   0.00000  Uiso   1.00
C51    C     0.94361   0.44372   0.06488   0.00000  Uiso   1.00
C52    C     0.44877   0.56093   0.44363   0.00000  Uiso   1.00
C53    C     0.05631   0.44376   0.95259   0.00000  Uiso   1.00
C54    C     0.05639   0.55628   0.06488   0.00000  Uiso   1.00
C55    C     0.43908   0.44877   0.55638   0.00000  Uiso   1.00
C56    C     0.55624   0.05632   0.04742   0.00000  Uiso   1.00
C57    C     0.44372   0.05640   0.93514   0.00000  Uiso   1.00
C58    C     0.56092   0.55123   0.55638   0.00000  Uiso   1.00
C59    C     0.44375   0.94369   0.04742   0.00000  Uiso   1.00
C60    C     0.55628   0.94361   0.93514   0.00000  Uiso   1.00
H61    H     0.44695   0.35301   0.46052   0.00000  Uiso   1.00
H62    H     0.52500   0.34458   0.53585   0.00000  Uiso   1.00
H63    H     0.96242   0.46051   0.85693   0.00000  Uiso   1.00
H64    H     0.96181   0.53879   0.16019   0.00000  Uiso   1.00
H65    H     0.34834   0.96139   0.95174   0.00000  Uiso   1.00
H66    H     0.65218   0.96282   0.02987   0.00000  Uiso   1.00
H67    H     0.55304   0.64700   0.46052   0.00000  Uiso   1.00
H68    H     0.47500   0.65543   0.53585   0.00000  Uiso   1.00
H69    H     0.03758   0.53949   0.85693   0.00000  Uiso   1.00
H70    H     0.03818   0.46121   0.16019   0.00000  Uiso   1.00
H71    H     0.65166   0.03861   0.95174   0.00000  Uiso   1.00
H72    H     0.34781   0.03718   0.02987   0.00000  Uiso   1.00
H73    H     0.35300   0.55305   0.53950   0.00000  Uiso   1.00
H74    H     0.34457   0.47501   0.46417   0.00000  Uiso   1.00
H75    H     0.46051   0.03758   0.14309   0.00000  Uiso   1.00
H76    H     0.53879   0.03819   0.83982   0.00000  Uiso   1.00
H77    H     0.96139   0.65166   0.04827   0.00000  Uiso   1.00
H78    H     0.96282   0.34782   0.97015   0.00000  Uiso   1.00
H79    H     0.64699   0.44696   0.53950   0.00000  Uiso   1.00
H80    H     0.65542   0.52500   0.46417   0.00000  Uiso   1.00
H81    H     0.53949   0.96242   0.14309   0.00000  Uiso   1.00
H82    H     0.46121   0.96182   0.83982   0.00000  Uiso   1.00
H83    H     0.03861   0.34834   0.04827   0.00000  Uiso   1.00
H84    H     0.03718   0.65219   0.97015   0.00000  Uiso   1.00
H85    H     0.54150   0.53526   0.34854   0.00000  Uiso   1.00
H86    H     0.84824   0.53857   0.04704   0.00000  Uiso   1.00
H87    H     0.84840   0.46157   0.97011   0.00000  Uiso   1.00
H88    H     0.45850   0.46475   0.34854   0.00000  Uiso   1.00
H89    H     0.15176   0.46144   0.04704   0.00000  Uiso   1.00
H90    H     0.15160   0.53843   0.97011   0.00000  Uiso   1.00
H91    H     0.53525   0.45850   0.65147   0.00000  Uiso   1.00
H92    H     0.53856   0.15176   0.95297   0.00000  Uiso   1.00
H93    H     0.46157   0.15160   0.02991   0.00000  Uiso   1.00
H94    H     0.46474   0.54150   0.65147   0.00000  Uiso   1.00
H95    H     0.46143   0.84824   0.95297   0.00000  Uiso   1.00
H96    H     0.53843   0.84841   0.02991   0.00000  Uiso   1.00
C97    C     0.75608   0.72127   0.86529   0.00000  Uiso   1.00
C98    C     0.36895   0.72710   0.25174   0.00000  Uiso   1.00
C99    C     0.35964   0.24848   0.77403   0.00000  Uiso   1.00
C100   C     0.24392   0.27874   0.86529   0.00000  Uiso   1.00
C101   C     0.63105   0.27290   0.25174   0.00000  Uiso   1.00
C102   C     0.64036   0.75153   0.77403   0.00000  Uiso   1.00
C103   C     0.72126   0.24392   0.13473   0.00000  Uiso   1.00
C104   C     0.72710   0.63105   0.74828   0.00000  Uiso   1.00
C105   C     0.24847   0.64036   0.22598   0.00000  Uiso   1.00
C106   C     0.27874   0.75608   0.13473   0.00000  Uiso   1.00
C107   C     0.27290   0.36895   0.74828   0.00000  Uiso   1.00
C108   C     0.75152   0.35964   0.22598   0.00000  Uiso   1.00
C109   C     0.77581   0.64952   0.81875   0.00000  Uiso   1.00
C110   C     0.22807   0.68739   0.15489   0.00000  Uiso   1.00
C111   C     0.68028   0.34202   0.27399   0.00000  Uiso   1.00
C112   C     0.22418   0.35049   0.81875   0.00000  Uiso   1.00
C113   C     0.77193   0.31262   0.15489   0.00000  Uiso   1.00
C114   C     0.31972   0.65798   0.27399   0.00000  Uiso   1.00
C115   C     0.64951   0.22419   0.18126   0.00000  Uiso   1.00
C116   C     0.68739   0.77193   0.84512   0.00000  Uiso   1.00
C117   C     0.34202   0.31972   0.72603   0.00000  Uiso   1.00
C118   C     0.35048   0.77582   0.18126   0.00000  Uiso   1.00
C119   C     0.31261   0.22808   0.84512   0.00000  Uiso   1.00
C120   C     0.65798   0.68028   0.72603   0.00000  Uiso   1.00
H121   H     0.79090   0.73541   0.91642   0.00000  Uiso   1.00
H122   H     0.42061   0.74061   0.28611   0.00000  Uiso   1.00
H123   H     0.40937   0.21213   0.75849   0.00000  Uiso   1.00
H124   H     0.20910   0.26459   0.91642   0.00000  Uiso   1.00
H125   H     0.57939   0.25939   0.28611   0.00000  Uiso   1.00
H126   H     0.59062   0.78788   0.75849   0.00000  Uiso   1.00
H127   H     0.73541   0.20911   0.08359   0.00000  Uiso   1.00
H128   H     0.74061   0.57939   0.71390   0.00000  Uiso   1.00
H129   H     0.21212   0.59063   0.24152   0.00000  Uiso   1.00
H130   H     0.26459   0.79090   0.08359   0.00000  Uiso   1.00
H131   H     0.25939   0.42062   0.71390   0.00000  Uiso   1.00
H132   H     0.78788   0.40938   0.24152   0.00000  Uiso   1.00
C133   C     0.88868   0.50001   0.00864   0.00000  Uiso   1.00
C134   C     0.11132   0.49999   0.00864   0.00000  Uiso   1.00
C135   C     0.50001   0.11133   0.99137   0.00000  Uiso   1.00
C136   C     0.49999   0.88868   0.99137   0.00000  Uiso   1.00
C137   C     0.50000   0.50000   0.38885   0.00000  Uiso   1.00
C138   C     0.50000   0.50000   0.61117   0.00000  Uiso   1.00
loop_
_geom_bond_atom_site_label_1
_geom_bond_atom_site_label_2
_geom_bond_distance
_geom_bond_site_symmetry_2
_ccdc_geom_bond_type
C1     N2      1.355   .     S
C1     H3      1.023   .     S
C1     C114    1.410   .     S
N2     C52     1.431   .     S
C4     H6      1.023   .     S
C4     N5      1.355   .     S
C4     C113    1.411   .     S
N5     C51     1.429   .     S
C7     C109    1.410   .     S
C7     H9      1.023   .     S
C7     N8      1.354   .     S
N8     C50     1.428   .     S
C10    N11     1.355   .     S
C10    H12     1.023   .     S
C10    C111    1.410   .     S
N11    C49     1.431   .     S
C13    H15     1.023   .     S
C13    C110    1.411   .     S
C13    N14     1.355   .     S
N14    C54     1.429   .     S
C16    C112    1.410   .     S
C16    H18     1.023   .     S
C16    N17     1.354   .     S
N17    C53     1.428   .     S
C19    C120    1.410   .     S
C19    H21     1.023   .     S
C19    N20     1.355   .     S
N20    C58     1.431   .     S
C22    N23     1.355   .     S
C22    H24     1.023   .     S
C22    C119    1.411   .     S
N23    C57     1.429   .     S
C25    H27     1.023   .     S
C25    C115    1.410   .     S
C25    N26     1.354   .     S
N26    C56     1.428   .     S
C28    C117    1.410   .     S
C28    H30     1.023   .     S
C28    N29     1.355   .     S
N29    C55     1.431   .     S
C31    H33     1.023   .     S
C31    N32     1.355   .     S
C31    C116    1.411   .     S
N32    C60     1.429   .     S
C34    C118    1.410   .     S
C34    H36     1.023   .     S
C34    N35     1.354   .     S
N35    C59     1.428   .     S
C37    H79     1.092   .     S
C37    H80     1.091   .     S
C37    C49     1.566   .     S
C37    C58     1.562   .     S
C38    H77     1.092   .     S
C39    H74     1.091   .     S
C39    H73     1.092   .     S
C39    C52     1.566   .     S
C39    C55     1.562   .     S
C40    H83     1.092   .     S
C41    H61     1.092   .     S
C41    H62     1.091   .     S
C41    C49     1.562   .     S
C41    C55     1.566   .     S
C42    H71     1.092   .     S
C43    C52     1.562   .     S
C43    H68     1.091   .     S
C43    H67     1.092   .     S
C43    C58     1.566   .     S
C44    H65     1.092   .     S
C45    C56     1.566   .     S
C45    H75     1.091   .     S
C46    C57     1.561   .     S
C46    H76     1.093   .     S
C47    C53     1.566   .     S
C47    H69     1.091   .     S
C48    H70     1.093   .     S
C48    C54     1.561   .     S
C49    C137    1.558   .     S
C51    C133    1.559   .     S
C52    C137    1.558   .     S
C54    C134    1.559   .     S
C55    C138    1.558   .     S
C57    C135    1.559   .     S
C58    C138    1.558   .     S
C60    C136    1.559   .     S
H85    C137    1.093   .     S
H86    C133    1.093   .     S
H88    C137    1.093   .     S
H89    C134    1.093   .     S
H91    C138    1.093   .     S
H92    C135    1.093   .     S
H94    C138    1.093   .     S
H95    C136    1.093   .     S
C97    C116    1.414   .     S
C97    C109    1.415   .     S
C97    H121    1.024   .     S
C98    H122    1.024   .     S
C98    C114    1.414   .     S
C98    C118    1.414   .     S
C99    C119    1.414   .     S
C99    C117    1.414   .     S
C99    H123    1.024   .     S
C100   C119    1.414   .     S
C100   C112    1.415   .     S
C100   H124    1.024   .     S
C101   H125    1.024   .     S
C101   C111    1.414   .     S
C101   C115    1.414   .     S
C102   C116    1.414   .     S
C102   H126    1.024   .     S
C102   C120    1.414   .     S
C103   C115    1.415   .     S
C103   C113    1.414   .     S
C103   H127    1.024   .     S
C104   H128    1.024   .     S
C104   C120    1.414   .     S
C104   C109    1.414   .     S
C105   C114    1.414   .     S
C105   H129    1.024   .     S
C105   C110    1.414   .     S
C106   C110    1.414   .     S
C106   C118    1.415   .     S
C106   H130    1.024   .     S
C107   H131    1.024   .     S
C107   C117    1.414   .     S
C107   C112    1.414   .     S
C108   C111    1.414   .     S
C108   H132    1.024   .     S
C108   C113    1.414   .     S
