data_BLP-2H-AB
_audit_creation_date              2016-12-13
_audit_creation_method            'Materials Studio'
_symmetry_space_group_name_H-M    'P1'
_symmetry_Int_Tables_number       1
_symmetry_cell_setting            triclinic
loop_
_symmetry_equiv_pos_as_xyz
  x,y,z
_cell_length_a                    15.2197
_cell_length_b                    15.2197
_cell_length_c                    7.0593
_cell_angle_alpha                 90.0000
_cell_angle_beta                  90.0000
_cell_angle_gamma                 120.0000
loop_
_atom_site_label
_atom_site_type_symbol
_atom_site_fract_x
_atom_site_fract_y
_atom_site_fract_z
_atom_site_U_iso_or_equiv
_atom_site_adp_type
_atom_site_occupancy
B1     B     0.38690   0.61310   0.25000   0.00000  Uiso   1.00
H1     H     0.43030   0.56970   0.25000   0.00000  Uiso   1.00
B2     B     0.38690   0.77380   0.25000   0.00000  Uiso   1.00
H2     H     0.43030   0.86060   0.25000   0.00000  Uiso   1.00
B3     B     0.22620   0.61310   0.25000   0.00000  Uiso   1.00
H3     H     0.13940   0.56970   0.25000   0.00000  Uiso   1.00
B4     B     0.61310   0.38690   0.75000   0.00000  Uiso   1.00
H4     H     0.56970   0.43030   0.75000   0.00000  Uiso   1.00
B5     B     0.61310   0.22620   0.75000   0.00000  Uiso   1.00
H5     H     0.56970   0.13940   0.75000   0.00000  Uiso   1.00
B6     B     0.77380   0.38690   0.75000   0.00000  Uiso   1.00
H6     H     0.86060   0.43030   0.75000   0.00000  Uiso   1.00
C1     C     0.05405   0.10810   0.25000   0.00000  Uiso   1.00
C2     C     0.11170   0.22340   0.25000   0.00000  Uiso   1.00
C3     C     0.22205   0.44410   0.25000   0.00000  Uiso   1.00
N1     N     0.27815   0.55630   0.25000   0.00000  Uiso   1.00
C4     C     0.89190   0.94595   0.25000   0.00000  Uiso   1.00
C5     C     0.77660   0.88830   0.25000   0.00000  Uiso   1.00
C6     C     0.55590   0.77795   0.25000   0.00000  Uiso   1.00
N2     N     0.44370   0.72185   0.25000   0.00000  Uiso   1.00
C7     C     0.05405   0.94595   0.25000   0.00000  Uiso   1.00
C8     C     0.11170   0.88830   0.25000   0.00000  Uiso   1.00
C9     C     0.22205   0.77795   0.25000   0.00000  Uiso   1.00
N3     N     0.27815   0.72185   0.25000   0.00000  Uiso   1.00
C10    C     0.94595   0.89190   0.75000   0.00000  Uiso   1.00
C11    C     0.88830   0.77660   0.75000   0.00000  Uiso   1.00
C12    C     0.77795   0.55590   0.75000   0.00000  Uiso   1.00
N4     N     0.72185   0.44370   0.75000   0.00000  Uiso   1.00
C13    C     0.10810   0.05405   0.75000   0.00000  Uiso   1.00
C14    C     0.22340   0.11170   0.75000   0.00000  Uiso   1.00
C15    C     0.44410   0.22205   0.75000   0.00000  Uiso   1.00
N5     N     0.55630   0.27815   0.75000   0.00000  Uiso   1.00
C16    C     0.94595   0.05405   0.75000   0.00000  Uiso   1.00
C17    C     0.88830   0.11170   0.75000   0.00000  Uiso   1.00
C18    C     0.77795   0.22205   0.75000   0.00000  Uiso   1.00
N6     N     0.72185   0.27815   0.75000   0.00000  Uiso   1.00
C19    C     0.10470   0.05235   0.25000   0.00000  Uiso   1.00
C20    C     0.94765   0.05235   0.25000   0.00000  Uiso   1.00
C21    C     0.94765   0.89530   0.25000   0.00000  Uiso   1.00
C22    C     0.89530   0.94765   0.75000   0.00000  Uiso   1.00
C23    C     0.05235   0.94765   0.75000   0.00000  Uiso   1.00
C24    C     0.05235   0.10470   0.75000   0.00000  Uiso   1.00
C25    C     0.21900   0.28000   0.25000   0.00000  Uiso   1.00
C26    C     0.27120   0.38600   0.25000   0.00000  Uiso   1.00
H7     H     0.58050   0.64840   0.25000   0.00000  Uiso   1.00
H8     H     0.75290   0.73240   0.25000   0.00000  Uiso   1.00
C27    C     0.72000   0.93900   0.25000   0.00000  Uiso   1.00
C28    C     0.61400   0.88520   0.25000   0.00000  Uiso   1.00
H9     H     0.35160   0.93210   0.25000   0.00000  Uiso   1.00
H10    H     0.26760   0.02050   0.25000   0.00000  Uiso   1.00
C29    C     0.06100   0.78100   0.25000   0.00000  Uiso   1.00
C30    C     0.11480   0.72880   0.25000   0.00000  Uiso   1.00
H11    H     0.06790   0.41950   0.25000   0.00000  Uiso   1.00
H12    H     0.97950   0.24710   0.25000   0.00000  Uiso   1.00
C31    C     0.78100   0.72000   0.75000   0.00000  Uiso   1.00
C32    C     0.72880   0.61400   0.75000   0.00000  Uiso   1.00
H13    H     0.41950   0.35160   0.75000   0.00000  Uiso   1.00
H14    H     0.24710   0.26760   0.75000   0.00000  Uiso   1.00
C33    C     0.28000   0.06100   0.75000   0.00000  Uiso   1.00
C34    C     0.38600   0.11480   0.75000   0.00000  Uiso   1.00
H15    H     0.64840   0.06790   0.75000   0.00000  Uiso   1.00
H16    H     0.73240   0.97950   0.75000   0.00000  Uiso   1.00
C35    C     0.93900   0.21900   0.75000   0.00000  Uiso   1.00
C36    C     0.88520   0.27120   0.75000   0.00000  Uiso   1.00
H17    H     0.93210   0.58050   0.75000   0.00000  Uiso   1.00
H18    H     0.02050   0.75290   0.75000   0.00000  Uiso   1.00
C37    C     0.28000   0.21900   0.75000   0.00000  Uiso   1.00
C38    C     0.38600   0.27120   0.75000   0.00000  Uiso   1.00
H19    H     0.64840   0.58050   0.75000   0.00000  Uiso   1.00
H20    H     0.73240   0.75290   0.75000   0.00000  Uiso   1.00
C39    C     0.93900   0.72000   0.75000   0.00000  Uiso   1.00
C40    C     0.88520   0.61400   0.75000   0.00000  Uiso   1.00
H21    H     0.93210   0.35160   0.75000   0.00000  Uiso   1.00
H22    H     0.02050   0.26760   0.75000   0.00000  Uiso   1.00
C41    C     0.78100   0.06100   0.75000   0.00000  Uiso   1.00
C42    C     0.72880   0.11480   0.75000   0.00000  Uiso   1.00
H23    H     0.41950   0.06790   0.75000   0.00000  Uiso   1.00
H24    H     0.24710   0.97950   0.75000   0.00000  Uiso   1.00
C43    C     0.72000   0.78100   0.25000   0.00000  Uiso   1.00
C44    C     0.61400   0.72880   0.25000   0.00000  Uiso   1.00
H25    H     0.35160   0.41950   0.25000   0.00000  Uiso   1.00
H26    H     0.26760   0.24710   0.25000   0.00000  Uiso   1.00
C45    C     0.06100   0.28000   0.25000   0.00000  Uiso   1.00
C46    C     0.11480   0.38600   0.25000   0.00000  Uiso   1.00
H27    H     0.06790   0.64840   0.25000   0.00000  Uiso   1.00
H28    H     0.97950   0.73240   0.25000   0.00000  Uiso   1.00
C47    C     0.21900   0.93900   0.25000   0.00000  Uiso   1.00
C48    C     0.27120   0.88520   0.25000   0.00000  Uiso   1.00
H29    H     0.58050   0.93210   0.25000   0.00000  Uiso   1.00
H30    H     0.75290   0.02050   0.25000   0.00000  Uiso   1.00
H31    H     0.09210   0.18420   0.75000   0.00000  Uiso   1.00
H32    H     0.81580   0.90790   0.75000   0.00000  Uiso   1.00
H33    H     0.09210   0.90790   0.75000   0.00000  Uiso   1.00
H34    H     0.90790   0.81580   0.25000   0.00000  Uiso   1.00
H35    H     0.18420   0.09210   0.25000   0.00000  Uiso   1.00
H36    H     0.90790   0.09210   0.25000   0.00000  Uiso   1.00
loop_
_geom_bond_atom_site_label_1
_geom_bond_atom_site_label_2
_geom_bond_distance
_geom_bond_site_symmetry_2
_ccdc_geom_bond_type
B1     N1      1.434   .     S
B1     H1      1.144   .     S
B1     N2      1.434   .     S
B2     N2      1.434   .     S
B2     N3      1.434   .     S
B2     H2      1.144   .     S
B3     H3      1.144   .     S
B3     N1      1.434   .     S
B3     N3      1.434   .     S
B4     N5      1.434   .     S
B4     H4      1.144   .     S
B4     N4      1.434   .     S
B5     H5      1.144   .     S
B5     N5      1.434   .     S
B5     N6      1.434   .     S
B6     N6      1.434   .     S
B6     N4      1.434   .     S
B6     H6      1.144   .     S
C1     C19     1.403   .     S
C1     C2      1.520   .     S
C2     C25     1.415   .     S
C2     C45     1.415   .     S
C3     N1      1.479   .     S
C3     C26     1.415   .     S
C3     C46     1.415   .     S
C4     C5      1.520   .     S
C4     C21     1.403   .     S
C5     C27     1.415   .     S
C5     C43     1.415   .     S
C6     N2      1.479   .     S
C6     C44     1.415   .     S
C6     C28     1.415   .     S
C7     C8      1.520   .     S
C8     C47     1.415   .     S
C8     C29     1.415   .     S
C9     C30     1.415   .     S
C9     N3      1.479   .     S
C9     C48     1.415   .     S
C10    C22     1.403   .     S
C10    C11     1.520   .     S
C11    C39     1.415   .     S
C11    C31     1.415   .     S
C12    C40     1.415   .     S
C12    C32     1.415   .     S
C12    N4      1.479   .     S
C13    C24     1.403   .     S
C13    C14     1.520   .     S
C14    C33     1.415   .     S
C14    C37     1.415   .     S
C15    C38     1.415   .     S
C15    N5      1.479   .     S
C15    C34     1.415   .     S
C16    C17     1.520   .     S
C17    C41     1.415   .     S
C17    C35     1.415   .     S
C18    N6      1.479   .     S
C18    C36     1.415   .     S
C18    C42     1.415   .     S
C19    H35     1.048   .     S
C20    H36     1.048   .     S
C21    H34     1.048   .     S
C22    H32     1.048   .     S
C23    H33     1.048   .     S
C24    H31     1.048   .     S
C25    C26     1.397   .     S
C25    H26     1.081   .     S
C26    H25     1.065   .     S
H7     C44     1.065   .     S
H8     C43     1.081   .     S
C27    C28     1.397   .     S
C28    H29     1.065   .     S
H9     C48     1.065   .     S
C29    C30     1.397   .     S
C30    H27     1.065   .     S
H11    C46     1.065   .     S
C31    H20     1.081   .     S
C31    C32     1.397   .     S
C32    H19     1.065   .     S
H13    C38     1.065   .     S
H14    C37     1.081   .     S
C33    C34     1.397   .     S
C34    H23     1.065   .     S
H15    C42     1.065   .     S
C35    C36     1.397   .     S
C36    H21     1.065   .     S
H17    C40     1.065   .     S
C37    C38     1.397   .     S
C39    C40     1.397   .     S
C41    C42     1.397   .     S
C43    C44     1.397   .     S
C45    C46     1.397   .     S
C47    C48     1.397   .     S
