data_BLP-2H-AA
_audit_creation_date              2016-12-13
_audit_creation_method            'Materials Studio'
_symmetry_space_group_name_H-M    'P1'
_symmetry_Int_Tables_number       1
_symmetry_cell_setting            triclinic
loop_
_symmetry_equiv_pos_as_xyz
  x,y,z
_cell_length_a                    15.2905
_cell_length_b                    15.2905
_cell_length_c                    3.4579
_cell_angle_alpha                 90.0000
_cell_angle_beta                  90.0000
_cell_angle_gamma                 120.0000
loop_
_atom_site_label
_atom_site_type_symbol
_atom_site_fract_x
_atom_site_fract_y
_atom_site_fract_z
_atom_site_U_iso_or_equiv
_atom_site_adp_type
_atom_site_occupancy
B1     B     0.44040   0.72020   0.00000   0.00000  Uiso   1.00
H1     H     0.52720   0.76360   0.00000   0.00000  Uiso   1.00
B2     B     0.27980   0.72020   0.00000   0.00000  Uiso   1.00
H2     H     0.23640   0.76360   0.00000   0.00000  Uiso   1.00
B3     B     0.27980   0.55960   0.00000   0.00000  Uiso   1.00
H3     H     0.23640   0.47280   0.00000   0.00000  Uiso   1.00
C1     C     0.56170   0.28085   0.00000   0.00000  Uiso   1.00
C2     C     0.71915   0.28085   0.00000   0.00000  Uiso   1.00
C3     C     0.71915   0.43830   0.00000   0.00000  Uiso   1.00
C4     C     0.61260   0.22520   0.00000   0.00000  Uiso   1.00
H4     H     0.75910   0.51820   0.00000   0.00000  Uiso   1.00
C5     C     0.77480   0.38740   0.00000   0.00000  Uiso   1.00
H5     H     0.48180   0.24090   0.00000   0.00000  Uiso   1.00
C6     C     0.61260   0.38740   0.00000   0.00000  Uiso   1.00
H6     H     0.75910   0.24090   0.00000   0.00000  Uiso   1.00
C7     C     0.55230   0.60440   0.00000   0.00000  Uiso   1.00
C8     C     0.60490   0.55150   0.00000   0.00000  Uiso   1.00
H7     H     0.40190   0.31430   0.00000   0.00000  Uiso   1.00
H8     H     0.31510   0.39990   0.00000   0.00000  Uiso   1.00
C9     C     0.39560   0.94790   0.00000   0.00000  Uiso   1.00
C10    C     0.44850   0.05340   0.00000   0.00000  Uiso   1.00
H9     H     0.68570   0.08760   0.00000   0.00000  Uiso   1.00
H10    H     0.60010   0.91520   0.00000   0.00000  Uiso   1.00
C11    C     0.05210   0.44770   0.00000   0.00000  Uiso   1.00
C12    C     0.94660   0.39510   0.00000   0.00000  Uiso   1.00
H11    H     0.91240   0.59810   0.00000   0.00000  Uiso   1.00
H12    H     0.08480   0.68490   0.00000   0.00000  Uiso   1.00
C13    C     0.39560   0.44770   0.00000   0.00000  Uiso   1.00
C14    C     0.44850   0.39510   0.00000   0.00000  Uiso   1.00
H13    H     0.68570   0.59810   0.00000   0.00000  Uiso   1.00
H14    H     0.60010   0.68490   0.00000   0.00000  Uiso   1.00
C15    C     0.05210   0.60440   0.00000   0.00000  Uiso   1.00
C16    C     0.94660   0.55150   0.00000   0.00000  Uiso   1.00
H15    H     0.91240   0.31430   0.00000   0.00000  Uiso   1.00
H16    H     0.08480   0.39990   0.00000   0.00000  Uiso   1.00
C17    C     0.55230   0.94790   0.00000   0.00000  Uiso   1.00
C18    C     0.60490   0.05340   0.00000   0.00000  Uiso   1.00
H17    H     0.40190   0.08760   0.00000   0.00000  Uiso   1.00
H18    H     0.31510   0.91520   0.00000   0.00000  Uiso   1.00
C19    C     0.55490   0.44510   0.00000   0.00000  Uiso   1.00
C20    C     0.44510   0.55490   0.00000   0.00000  Uiso   1.00
C21    C     0.55490   0.10980   0.00000   0.00000  Uiso   1.00
C22    C     0.44510   0.89020   0.00000   0.00000  Uiso   1.00
C23    C     0.89020   0.44510   0.00000   0.00000  Uiso   1.00
C24    C     0.10980   0.55490   0.00000   0.00000  Uiso   1.00
N1     N     0.38900   0.77800   0.00000   0.00000  Uiso   1.00
N2     N     0.22200   0.61100   0.00000   0.00000  Uiso   1.00
N3     N     0.38900   0.61100   0.00000   0.00000  Uiso   1.00
loop_
_geom_bond_atom_site_label_1
_geom_bond_atom_site_label_2
_geom_bond_distance
_geom_bond_site_symmetry_2
_ccdc_geom_bond_type
B1     N1      1.447   .     S
B1     H1      1.149   .     S
B1     N3      1.447   .     S
B2     H2      1.149   .     S
B2     N1      1.447   .     S
B2     N2      1.447   .     S
B3     N3      1.447   .     S
B3     N2      1.447   .     S
B3     H3      1.149   .     S
C1     C6      1.411   .     S
C1     H5      1.058   .     S
C1     C4      1.411   .     S
C2     C5      1.411   .     S
C2     C4      1.411   .     S
C2     H6      1.058   .     S
C3     H4      1.058   .     S
C3     C6      1.411   .     S
C3     C5      1.411   .     S
C4     C21     1.528   .     S
C5     C23     1.528   .     S
C6     C19     1.528   .     S
C7     C8      1.397   .     S
C7     C20     1.421   .     S
C7     H14     1.072   .     S
C8     H13     1.074   .     S
C8     C19     1.410   .     S
H7     C14     1.074   .     S
H8     C13     1.072   .     S
C9     H18     1.072   .     S
C9     C22     1.421   .     S
C10    H17     1.074   .     S
C10    C21     1.410   .     S
H9     C18     1.074   .     S
H10    C17     1.072   .     S
C11    C24     1.421   .     S
C11    H16     1.072   .     S
C12    H15     1.074   .     S
C12    C23     1.410   .     S
H11    C16     1.074   .     S
H12    C15     1.072   .     S
C13    C20     1.421   .     S
C13    C14     1.397   .     S
C14    C19     1.410   .     S
C15    C24     1.421   .     S
C16    C23     1.410   .     S
C17    C22     1.421   .     S
C18    C21     1.410   .     S
C20    N3      1.486   .     S
C22    N1      1.486   .     S
C24    N2      1.486   .     S
