data_CC-TAPH-COF
_audit_creation_date              2016-12-13
_audit_creation_method            'Materials Studio'
_symmetry_space_group_name_H-M    'P1'
_symmetry_Int_Tables_number       1
_symmetry_cell_setting            triclinic
loop_
_symmetry_equiv_pos_as_xyz
  x,y,z
_cell_length_a                    25.8040
_cell_length_b                    6.7470
_cell_length_c                    26.2324
_cell_angle_alpha                 90.0000
_cell_angle_beta                  101.7366
_cell_angle_gamma                 90.0000
loop_
_atom_site_label
_atom_site_type_symbol
_atom_site_fract_x
_atom_site_fract_y
_atom_site_fract_z
_atom_site_U_iso_or_equiv
_atom_site_adp_type
_atom_site_occupancy
C1     C     0.10241   0.50000   0.08179   0.00000  Uiso   1.00
C2     C     0.59120   0.50000   0.58902   0.00000  Uiso   1.00
C3     C     0.01313   0.50000   0.99784   0.00000  Uiso   1.00
C4     C     0.52434   0.50000   0.49061   0.00000  Uiso   1.00
C5     C     0.57930   0.50000   0.49503   0.00000  Uiso   1.00
C6     C     0.00293   0.50000   0.05214   0.00000  Uiso   1.00
C7     C     0.53624   0.50000   0.58460   0.00000  Uiso   1.00
C8     C     0.11262   0.50000   0.02749   0.00000  Uiso   1.00
C9     C     0.44426   0.50000   0.52985   0.00000  Uiso   1.00
C10    C     0.06128   0.50000   0.92581   0.00000  Uiso   1.00
C11    C     0.67129   0.50000   0.54978   0.00000  Uiso   1.00
C12    C     0.05427   0.50000   0.15382   0.00000  Uiso   1.00
C13    C     0.61319   0.50000   0.54430   0.00000  Uiso   1.00
C14    C     0.04781   0.50000   0.09474   0.00000  Uiso   1.00
C15    C     0.50236   0.50000   0.53533   0.00000  Uiso   1.00
C16    C     0.06774   0.50000   0.98489   0.00000  Uiso   1.00
N1     N     0.69280   0.50000   0.50914   0.00000  Uiso   1.00
N2     N     0.01003   0.50000   0.17933   0.00000  Uiso   1.00
N3     N     0.42275   0.50000   0.57049   0.00000  Uiso   1.00
N4     N     0.10551   0.50000   0.90030   0.00000  Uiso   1.00
N5     N     0.11363   0.50000   0.48185   0.00000  Uiso   1.00
N6     N     0.00191   0.50000   0.59778   0.00000  Uiso   1.00
H1     H     0.09032   0.50000   0.50604   0.00000  Uiso   1.00
H2     H     0.02522   0.50000   0.57359   0.00000  Uiso   1.00
C17    C     0.09633   0.50000   0.43013   0.00000  Uiso   1.00
C18    C     0.94909   0.50000   0.58291   0.00000  Uiso   1.00
C19    C     0.01921   0.50000   0.64950   0.00000  Uiso   1.00
C20    C     0.16645   0.50000   0.49672   0.00000  Uiso   1.00
C21    C     0.14167   0.50000   0.40916   0.00000  Uiso   1.00
C22    C     0.92998   0.50000   0.62879   0.00000  Uiso   1.00
C23    C     0.97387   0.50000   0.67047   0.00000  Uiso   1.00
C24    C     0.18557   0.50000   0.45084   0.00000  Uiso   1.00
H3     H     0.14302   0.50000   0.36823   0.00000  Uiso   1.00
H4     H     0.88884   0.50000   0.63191   0.00000  Uiso   1.00
H5     H     0.97253   0.50000   0.71140   0.00000  Uiso   1.00
H6     H     0.22671   0.50000   0.44772   0.00000  Uiso   1.00
N7     N     0.98817   0.50000   0.47372   0.00000  Uiso   1.00
N8     N     0.12737   0.50000   0.60590   0.00000  Uiso   1.00
C25    C     0.99223   0.50000   0.42073   0.00000  Uiso   1.00
C26    C     0.93502   0.50000   0.48010   0.00000  Uiso   1.00
C27    C     0.12331   0.50000   0.65890   0.00000  Uiso   1.00
C28    C     0.18053   0.50000   0.59953   0.00000  Uiso   1.00
C29    C     0.93668   0.50000   0.39223   0.00000  Uiso   1.00
C30    C     0.90387   0.50000   0.42628   0.00000  Uiso   1.00
C31    C     0.17887   0.50000   0.68740   0.00000  Uiso   1.00
C32    C     0.21168   0.50000   0.65335   0.00000  Uiso   1.00
H7     H     0.92369   0.50000   0.35033   0.00000  Uiso   1.00
H8     H     0.86112   0.50000   0.41527   0.00000  Uiso   1.00
H9     H     0.19186   0.50000   0.72930   0.00000  Uiso   1.00
H10    H     0.25442   0.50000   0.66436   0.00000  Uiso   1.00
C33    C     0.03811   0.50000   0.40057   0.00000  Uiso   1.00
C34    C     0.91676   0.50000   0.52648   0.00000  Uiso   1.00
C35    C     0.07744   0.50000   0.67906   0.00000  Uiso   1.00
C36    C     0.19878   0.50000   0.55315   0.00000  Uiso   1.00
C37    C     0.03086   0.50000   0.34339   0.00000  Uiso   1.00
C38    C     0.85889   0.50000   0.52186   0.00000  Uiso   1.00
C39    C     0.08468   0.50000   0.73624   0.00000  Uiso   1.00
C40    C     0.25666   0.50000   0.55777   0.00000  Uiso   1.00
C41    C     0.02733   0.32026   0.31609   0.00000  Uiso   1.00
C42    C     0.83128   0.67973   0.51976   0.00000  Uiso   1.00
C43    C     0.08822   0.32026   0.76354   0.00000  Uiso   1.00
C44    C     0.28427   0.67973   0.55987   0.00000  Uiso   1.00
C45    C     0.02733   0.67974   0.31609   0.00000  Uiso   1.00
C46    C     0.83128   0.32026   0.51976   0.00000  Uiso   1.00
C47    C     0.08822   0.67974   0.76354   0.00000  Uiso   1.00
C48    C     0.28427   0.32026   0.55987   0.00000  Uiso   1.00
H11    H     0.02972   0.18103   0.33697   0.00000  Uiso   1.00
H12    H     0.85237   0.81899   0.52127   0.00000  Uiso   1.00
H13    H     0.08583   0.18103   0.74266   0.00000  Uiso   1.00
H14    H     0.26317   0.81899   0.55836   0.00000  Uiso   1.00
H15    H     0.02972   0.81896   0.33697   0.00000  Uiso   1.00
H16    H     0.85237   0.18101   0.52127   0.00000  Uiso   1.00
H17    H     0.08583   0.81896   0.74266   0.00000  Uiso   1.00
H18    H     0.26317   0.18101   0.55836   0.00000  Uiso   1.00
C49    C     0.02024   0.32055   0.26176   0.00000  Uiso   1.00
C50    C     0.77633   0.67941   0.51552   0.00000  Uiso   1.00
C51    C     0.09531   0.32055   0.81787   0.00000  Uiso   1.00
C52    C     0.33921   0.67941   0.56411   0.00000  Uiso   1.00
C53    C     0.02024   0.67944   0.26176   0.00000  Uiso   1.00
C54    C     0.77633   0.32059   0.51552   0.00000  Uiso   1.00
C55    C     0.09531   0.67944   0.81787   0.00000  Uiso   1.00
C56    C     0.33921   0.32059   0.56411   0.00000  Uiso   1.00
H19    H     0.01693   0.18227   0.24052   0.00000  Uiso   1.00
H20    H     0.75483   0.81759   0.51367   0.00000  Uiso   1.00
H21    H     0.09861   0.18227   0.83911   0.00000  Uiso   1.00
H22    H     0.36071   0.81759   0.56596   0.00000  Uiso   1.00
H23    H     0.01693   0.81772   0.24052   0.00000  Uiso   1.00
H24    H     0.75483   0.18240   0.51367   0.00000  Uiso   1.00
H25    H     0.09861   0.81772   0.83911   0.00000  Uiso   1.00
H26    H     0.36071   0.18240   0.56596   0.00000  Uiso   1.00
C57    C     0.01691   0.50000   0.23459   0.00000  Uiso   1.00
C58    C     0.74886   0.50000   0.51362   0.00000  Uiso   1.00
C59    C     0.09864   0.50000   0.84504   0.00000  Uiso   1.00
C60    C     0.36668   0.50000   0.56601   0.00000  Uiso   1.00
H27    H     0.13825   0.50000   0.11356   0.00000  Uiso   1.00
H28    H     0.61658   0.50000   0.62738   0.00000  Uiso   1.00
H29    H     0.59553   0.50000   0.46005   0.00000  Uiso   1.00
H30    H     0.41946   0.50000   0.49110   0.00000  Uiso   1.00
O1     O     0.94721   0.50000   0.04763   0.00000  Uiso   1.00
H31    H     0.01826   0.50000   0.50230   0.00000  Uiso   1.00
H32    H     0.02148   0.50000   0.89970   0.00000  Uiso   1.00
C61    C     0.91046   0.50000   0.08021   0.00000  Uiso   1.00
O2     O     0.92240   0.50000   0.12703   0.00000  Uiso   1.00
H33    H     0.97730   0.50000   0.96607   0.00000  Uiso   1.00
H34    H     0.49897   0.50000   0.45225   0.00000  Uiso   1.00
H35    H     0.52002   0.50000   0.61958   0.00000  Uiso   1.00
H36    H     0.69609   0.50000   0.58852   0.00000  Uiso   1.00
O3     O     0.16834   0.50000   0.03200   0.00000  Uiso   1.00
H37    H     0.09728   0.50000   0.57733   0.00000  Uiso   1.00
H38    H     0.09406   0.50000   0.17993   0.00000  Uiso   1.00
C62    C     0.20508   0.50000   0.99942   0.00000  Uiso   1.00
O4     O     0.19315   0.50000   0.95260   0.00000  Uiso   1.00
C63    C     0.60610   0.50000   0.18588   0.00000  Uiso   1.00
C64    C     0.55226   0.50000   0.16250   0.00000  Uiso   1.00
C65    C     0.53667   0.50000   0.10817   0.00000  Uiso   1.00
C66    C     0.57492   0.50000   0.07722   0.00000  Uiso   1.00
C67    C     0.62877   0.50000   0.10060   0.00000  Uiso   1.00
C68    C     0.64436   0.50000   0.15493   0.00000  Uiso   1.00
C69    C     0.66703   0.50000   0.06964   0.00000  Uiso   1.00
C70    C     0.72087   0.50000   0.09302   0.00000  Uiso   1.00
C71    C     0.74354   0.50000   0.00774   0.00000  Uiso   1.00
C72    C     0.75913   0.50000   0.06207   0.00000  Uiso   1.00
C73    C     0.78180   0.50000   0.97678   0.00000  Uiso   1.00
C74    C     0.83565   0.50000   0.00016   0.00000  Uiso   1.00
C75    C     0.85123   0.50000   0.05449   0.00000  Uiso   1.00
C76    C     0.81298   0.50000   0.08545   0.00000  Uiso   1.00
H39    H     0.61813   0.50000   0.22780   0.00000  Uiso   1.00
H40    H     0.52274   0.50000   0.18638   0.00000  Uiso   1.00
H41    H     0.49513   0.50000   0.09014   0.00000  Uiso   1.00
H42    H     0.56290   0.50000   0.03530   0.00000  Uiso   1.00
H43    H     0.76977   0.50000   0.93487   0.00000  Uiso   1.00
H44    H     0.86516   0.50000   0.97628   0.00000  Uiso   1.00
H45    H     0.82500   0.50000   0.12736   0.00000  Uiso   1.00
C77    C     0.50944   0.50000   0.89374   0.00000  Uiso   1.00
C78    C     0.56329   0.50000   0.91713   0.00000  Uiso   1.00
C79    C     0.57888   0.50000   0.97146   0.00000  Uiso   1.00
C80    C     0.54062   0.50000   0.00241   0.00000  Uiso   1.00
C81    C     0.48677   0.50000   0.97903   0.00000  Uiso   1.00
C82    C     0.47119   0.50000   0.92470   0.00000  Uiso   1.00
C83    C     0.44852   0.50000   0.00998   0.00000  Uiso   1.00
C84    C     0.39467   0.50000   0.98661   0.00000  Uiso   1.00
C85    C     0.37201   0.50000   0.07189   0.00000  Uiso   1.00
C86    C     0.35641   0.50000   0.01756   0.00000  Uiso   1.00
C87    C     0.33375   0.50000   0.10285   0.00000  Uiso   1.00
C88    C     0.27990   0.50000   0.07947   0.00000  Uiso   1.00
C89    C     0.26431   0.50000   0.02513   0.00000  Uiso   1.00
C90    C     0.30257   0.50000   0.99418   0.00000  Uiso   1.00
H46    H     0.49742   0.50000   0.85183   0.00000  Uiso   1.00
H47    H     0.59281   0.50000   0.89325   0.00000  Uiso   1.00
H48    H     0.62042   0.50000   0.98949   0.00000  Uiso   1.00
H49    H     0.34577   0.50000   0.14476   0.00000  Uiso   1.00
H50    H     0.25039   0.50000   0.10335   0.00000  Uiso   1.00
H51    H     0.29054   0.50000   0.95227   0.00000  Uiso   1.00
H52    H     0.46121   0.50000   0.05423   0.00000  Uiso   1.00
H53    H     0.38198   0.50000   0.94236   0.00000  Uiso   1.00
H54    H     0.42734   0.50000   0.90566   0.00000  Uiso   1.00
H55    H     0.65433   0.50000   0.02540   0.00000  Uiso   1.00
H56    H     0.73357   0.50000   0.13727   0.00000  Uiso   1.00
H57    H     0.69969   0.50000   0.98870   0.00000  Uiso   1.00
loop_
_geom_bond_atom_site_label_1
_geom_bond_atom_site_label_2
_geom_bond_distance
_geom_bond_site_symmetry_2
_ccdc_geom_bond_type
C1     H27     1.112   .     S
C1     C14     1.515   .     S
C1     C8      1.500   .     S
C2     C7      1.399   .     S
C2     C13     1.403   .     S
C2     H28     1.083   .     S
C3     C16     1.515   .     S
C4     C5      1.399   .     S
C4     C15     1.403   .     S
C4     H34     1.083   .     S
C5     C13     1.405   .     S
C5     H29     1.083   .     S
C6     C14     1.437   .     S
C7     H35     1.083   .     S
C7     C15     1.405   .     S
C8     O3      1.418   .     S
C9     H30     1.085   .     S
C9     C15     1.477   .     S
C9     N3      1.298   .     S
C10    N4      1.436   .     S
C10    H32     1.113   .     S
C10    C16     1.525   .     S
C11    N1      1.298   .     S
C11    C13     1.477   .     S
C11    H36     1.085   .     S
C12    H38     1.113   .     S
C12    N2      1.436   .     S
C12    C14     1.525   .     S
N1     C58     1.427   .     S
N2     C57     1.424   .     S
N3     C60     1.427   .     S
N4     C59     1.424   .     S
N5     C17     1.339   .     S
N5     C20     1.339   .     S
N5     H1      0.959   .     S
N6     H2      0.959   .     S
N6     C19     1.339   .     S
C17    C21     1.390   .     S
C17    C33     1.544   .     S
C18    C34     1.544   .     S
C18    C22     1.390   .     S
C19    C35     1.544   .     S
C20    C24     1.390   .     S
C20    C36     1.544   .     S
C21    H3      1.081   .     S
C21    C24     1.405   .     S
C22    H4      1.081   .     S
C22    C23     1.405   .     S
C23    H5      1.081   .     S
C24    H6      1.081   .     S
N7     C26     1.415   .     S
N7     C25     1.415   .     S
N8     C28     1.415   .     S
N8     H37     0.963   .     S
N8     C27     1.415   .     S
C25    C29     1.476   .     S
C26    C30     1.476   .     S
C26    C34     1.391   .     S
C27    C35     1.391   .     S
C27    C31     1.476   .     S
C28    C36     1.391   .     S
C28    C32     1.476   .     S
C29    H7      1.082   .     S
C29    C30     1.350   .     S
C30    H8      1.082   .     S
C31    C32     1.350   .     S
C31    H9      1.082   .     S
C32    H10     1.082   .     S
C33    C37     1.474   .     S
C34    C38     1.473   .     S
C35    C39     1.474   .     S
C36    C40     1.473   .     S
C37    C41     1.402   .     S
C37    C45     1.402   .     S
C38    C46     1.402   .     S
C38    C42     1.402   .     S
C39    C47     1.402   .     S
C39    C43     1.402   .     S
C40    C48     1.402   .     S
C40    C44     1.402   .     S
C41    H11     1.083   .     S
C41    C49     1.400   .     S
C42    C50     1.400   .     S
C42    H12     1.083   .     S
C43    C51     1.400   .     S
C43    H13     1.083   .     S
C44    C52     1.400   .     S
C44    H14     1.083   .     S
C45    H15     1.083   .     S
C45    C53     1.400   .     S
C46    C54     1.400   .     S
C46    H16     1.083   .     S
C47    C55     1.400   .     S
C47    H17     1.083   .     S
C48    C56     1.400   .     S
C48    H18     1.083   .     S
C49    C57     1.399   .     S
C49    H19     1.081   .     S
C50    H20     1.081   .     S
C50    C58     1.398   .     S
C51    C59     1.399   .     S
C51    H21     1.081   .     S
C52    H22     1.081   .     S
C52    C60     1.398   .     S
C53    H23     1.081   .     S
C53    C57     1.399   .     S
C54    C58     1.398   .     S
C54    H24     1.081   .     S
C55    H25     1.081   .     S
C55    C59     1.399   .     S
C56    C60     1.398   .     S
C56    H26     1.081   .     S
O1     C61     1.400   .     S
C61    O2      1.204   .     S
C61    C75     1.540   .     S
C62    O4      1.204   .     S
C63    C68     1.400   .     S
C63    C64     1.400   .     S
C63    H39     1.080   .     S
C64    H40     1.080   .     S
C64    C65     1.400   .     S
C65    H41     1.080   .     S
C65    C66     1.400   .     S
C66    C67     1.400   .     S
C66    H42     1.080   .     S
C67    C69     1.400   .     S
C67    C68     1.400   .     S
C69    C70     1.400   .     S
C69    H55     1.140   .     S
C70    H56     1.140   .     S
C70    C72     1.400   .     S
C71    C72     1.400   .     S
C72    C76     1.400   .     S
C73    H43     1.080   .     S
C74    C75     1.400   .     S
C75    C76     1.400   .     S
C76    H45     1.080   .     S
H42    C80     0.934   .     S
C77    H46     1.080   .     S
C77    C82     1.400   .     S
C77    C78     1.400   .     S
C78    H47     1.080   .     S
C78    C79     1.400   .     S
C79    H48     1.080   .     S
C81    C82     1.400   .     S
C82    H54     1.140   .     S
C83    H52     1.140   .     S
C84    H53     1.140   .     S
C85    C87     1.400   .     S
C85    C86     1.400   .     S
C87    C88     1.400   .     S
C87    H49     1.080   .     S
C88    H50     1.080   .     S
C88    C89     1.400   .     S
C90    H51     1.080   .     S
