data_COF-SDU1
_audit_creation_date              2016-12-13
_audit_creation_method            'Materials Studio'
_symmetry_space_group_name_H-M    'P1'
_symmetry_Int_Tables_number       1
_symmetry_cell_setting            triclinic
loop_
_symmetry_equiv_pos_as_xyz
  x,y,z
_cell_length_a                    49.5558
_cell_length_b                    49.5558
_cell_length_c                    3.4000
_cell_angle_alpha                 90.0000
_cell_angle_beta                  90.0000
_cell_angle_gamma                 120.0000
loop_
_atom_site_label
_atom_site_type_symbol
_atom_site_fract_x
_atom_site_fract_y
_atom_site_fract_z
_atom_site_U_iso_or_equiv
_atom_site_adp_type
_atom_site_occupancy
N1     N     0.12925   0.56068   0.50000   0.00000  Uiso   1.00
N2     N     0.43932   0.56857   0.50000   0.00000  Uiso   1.00
N3     N     0.43143   0.87075   0.50000   0.00000  Uiso   1.00
N4     N     0.87075   0.43932   0.50000   0.00000  Uiso   1.00
N5     N     0.56068   0.43143   0.50000   0.00000  Uiso   1.00
N6     N     0.56857   0.12925   0.50000   0.00000  Uiso   1.00
N7     N     0.00866   0.51338   0.50000   0.00000  Uiso   1.00
N8     N     0.48662   0.49528   0.50000   0.00000  Uiso   1.00
N9     N     0.50472   0.99134   0.50000   0.00000  Uiso   1.00
C10    C     0.99134   0.48662   0.50000   0.00000  Uiso   1.00
C11    C     0.51338   0.50472   0.50000   0.00000  Uiso   1.00
C12    C     0.49528   0.00866   0.50000   0.00000  Uiso   1.00
H13    H     1.00152   1.47046   0.50000   0.00000  Uiso   1.00
H14    H     0.52954   1.53106   0.50000   0.00000  Uiso   1.00
H15    H     0.46894   0.99848   0.50000   0.00000  Uiso   1.00
C16    C     0.15053   0.59064   0.50000   0.00000  Uiso   1.00
C17    C     0.09883   0.54940   0.50000   0.00000  Uiso   1.00
C18    C     0.08631   0.56682   0.50000   0.00000  Uiso   1.00
C19    C     0.05662   0.55463   0.50000   0.00000  Uiso   1.00
C20    C     0.03891   0.52507   0.50000   0.00000  Uiso   1.00
C21    C     0.05115   0.50759   0.50000   0.00000  Uiso   1.00
C22    C     0.08080   0.51967   0.50000   0.00000  Uiso   1.00
C23    C     0.40936   0.55990   0.50000   0.00000  Uiso   1.00
C24    C     0.45060   0.54943   0.50000   0.00000  Uiso   1.00
C25    C     0.43318   0.51949   0.50000   0.00000  Uiso   1.00
C26    C     0.44537   0.50199   0.50000   0.00000  Uiso   1.00
C27    C     0.47493   0.51384   0.50000   0.00000  Uiso   1.00
C28    C     0.49241   0.54356   0.50000   0.00000  Uiso   1.00
C29    C     0.48033   0.56113   0.50000   0.00000  Uiso   1.00
C30    C     0.44010   0.84947   0.50000   0.00000  Uiso   1.00
C31    C     0.45057   0.90117   0.50000   0.00000  Uiso   1.00
C32    C     0.48051   0.91369   0.50000   0.00000  Uiso   1.00
C33    C     0.49801   0.94338   0.50000   0.00000  Uiso   1.00
C34    C     0.48616   0.96109   0.50000   0.00000  Uiso   1.00
C35    C     0.45644   0.94885   0.50000   0.00000  Uiso   1.00
C36    C     0.43887   0.91920   0.50000   0.00000  Uiso   1.00
C37    C     0.84947   0.40936   0.50000   0.00000  Uiso   1.00
C38    C     0.90117   0.45060   0.50000   0.00000  Uiso   1.00
C39    C     0.91369   0.43318   0.50000   0.00000  Uiso   1.00
C40    C     0.94338   0.44537   0.50000   0.00000  Uiso   1.00
C41    C     0.96109   0.47493   0.50000   0.00000  Uiso   1.00
C42    C     0.94885   0.49241   0.50000   0.00000  Uiso   1.00
C43    C     0.91920   0.48033   0.50000   0.00000  Uiso   1.00
C44    C     0.59064   0.44010   0.50000   0.00000  Uiso   1.00
C45    C     0.54940   0.45057   0.50000   0.00000  Uiso   1.00
C46    C     0.56682   0.48051   0.50000   0.00000  Uiso   1.00
C47    C     0.55463   0.49801   0.50000   0.00000  Uiso   1.00
C48    C     0.52507   0.48616   0.50000   0.00000  Uiso   1.00
C49    C     0.50759   0.45644   0.50000   0.00000  Uiso   1.00
C50    C     0.51967   0.43887   0.50000   0.00000  Uiso   1.00
C51    C     0.55990   0.15053   0.50000   0.00000  Uiso   1.00
C52    C     0.54943   0.09883   0.50000   0.00000  Uiso   1.00
C53    C     0.51949   0.08631   0.50000   0.00000  Uiso   1.00
C54    C     0.50199   0.05662   0.50000   0.00000  Uiso   1.00
C55    C     0.51384   0.03891   0.50000   0.00000  Uiso   1.00
C56    C     0.54356   0.05115   0.50000   0.00000  Uiso   1.00
C57    C     0.56113   0.08080   0.50000   0.00000  Uiso   1.00
H58    H     0.14295   0.60563   0.50000   0.00000  Uiso   1.00
H59    H     0.09884   0.58971   0.50000   0.00000  Uiso   1.00
H60    H     0.08980   0.50578   0.50000   0.00000  Uiso   1.00
H61    H     0.04722   0.56817   0.50000   0.00000  Uiso   1.00
H62    H     0.03767   0.48466   0.50000   0.00000  Uiso   1.00
H63    H     0.39437   0.53732   0.50000   0.00000  Uiso   1.00
H64    H     0.41029   0.50913   0.50000   0.00000  Uiso   1.00
H65    H     0.49422   0.58402   0.50000   0.00000  Uiso   1.00
H66    H     0.43183   0.47905   0.50000   0.00000  Uiso   1.00
H67    H     0.51534   0.55301   0.50000   0.00000  Uiso   1.00
H68    H     0.46268   0.85705   0.50000   0.00000  Uiso   1.00
H69    H     0.49087   0.90116   0.50000   0.00000  Uiso   1.00
H70    H     0.41598   0.91020   0.50000   0.00000  Uiso   1.00
H71    H     0.52095   0.95278   0.50000   0.00000  Uiso   1.00
H72    H     0.44699   0.96233   0.50000   0.00000  Uiso   1.00
H73    H     0.85705   0.39437   0.50000   0.00000  Uiso   1.00
H74    H     0.90116   0.41029   0.50000   0.00000  Uiso   1.00
H75    H     0.91020   0.49422   0.50000   0.00000  Uiso   1.00
H76    H     0.95278   0.43183   0.50000   0.00000  Uiso   1.00
H77    H     0.96233   0.51534   0.50000   0.00000  Uiso   1.00
H78    H     0.60563   0.46268   0.50000   0.00000  Uiso   1.00
H79    H     0.58971   0.49087   0.50000   0.00000  Uiso   1.00
H80    H     0.50578   0.41598   0.50000   0.00000  Uiso   1.00
H81    H     0.56817   0.52095   0.50000   0.00000  Uiso   1.00
H82    H     0.48466   0.44699   0.50000   0.00000  Uiso   1.00
H83    H     0.53732   0.14295   0.50000   0.00000  Uiso   1.00
H84    H     0.50913   0.09884   0.50000   0.00000  Uiso   1.00
H85    H     0.58402   0.08980   0.50000   0.00000  Uiso   1.00
H86    H     0.47905   0.04722   0.50000   0.00000  Uiso   1.00
H87    H     0.55301   0.03767   0.50000   0.00000  Uiso   1.00
C88    C     0.36278   0.69202   0.50000   0.00000  Uiso   1.00
C89    C     0.30798   0.67076   0.50000   0.00000  Uiso   1.00
C90    C     0.32924   0.63722   0.50000   0.00000  Uiso   1.00
C91    C     0.63722   0.30798   0.50000   0.00000  Uiso   1.00
C92    C     0.69202   0.32924   0.50000   0.00000  Uiso   1.00
C93    C     0.67076   0.36278   0.50000   0.00000  Uiso   1.00
N94    N     0.35838   0.66261   0.50000   0.00000  Uiso   1.00
N95    N     0.33739   0.69577   0.50000   0.00000  Uiso   1.00
N96    N     0.30423   0.64162   0.50000   0.00000  Uiso   1.00
N97    N     0.64162   0.33739   0.50000   0.00000  Uiso   1.00
N98    N     0.66261   0.30423   0.50000   0.00000  Uiso   1.00
N99    N     0.69577   0.35838   0.50000   0.00000  Uiso   1.00
O100   O     0.39371   0.71719   0.50000   0.00000  Uiso   1.00
O101   O     0.28281   0.67651   0.50000   0.00000  Uiso   1.00
O102   O     0.32349   0.60629   0.50000   0.00000  Uiso   1.00
O103   O     0.60629   0.28281   0.50000   0.00000  Uiso   1.00
O104   O     0.71719   0.32349   0.50000   0.00000  Uiso   1.00
O105   O     0.67651   0.39371   0.50000   0.00000  Uiso   1.00
C106   C     0.40295   0.74931   0.50000   0.00000  Uiso   1.00
C107   C     0.25069   0.65364   0.50000   0.00000  Uiso   1.00
C108   C     0.34636   0.59705   0.50000   0.00000  Uiso   1.00
C109   C     0.23788   0.62065   0.50000   0.00000  Uiso   1.00
C110   C     0.37935   0.61723   0.50000   0.00000  Uiso   1.00
C111   C     0.38277   0.76212   0.50000   0.00000  Uiso   1.00
C112   C     0.20531   0.60050   0.50000   0.00000  Uiso   1.00
C113   C     0.39950   0.60481   0.50000   0.00000  Uiso   1.00
C114   C     0.39519   0.79469   0.50000   0.00000  Uiso   1.00
C115   C     0.18479   0.61251   0.50000   0.00000  Uiso   1.00
C116   C     0.38749   0.57228   0.50000   0.00000  Uiso   1.00
C117   C     0.42772   0.81521   0.50000   0.00000  Uiso   1.00
C118   C     0.19733   0.64516   0.50000   0.00000  Uiso   1.00
C119   C     0.35484   0.55217   0.50000   0.00000  Uiso   1.00
C120   C     0.44783   0.80267   0.50000   0.00000  Uiso   1.00
C121   C     0.22984   0.66531   0.50000   0.00000  Uiso   1.00
C122   C     0.33469   0.56453   0.50000   0.00000  Uiso   1.00
C123   C     0.43547   0.77016   0.50000   0.00000  Uiso   1.00
C124   C     0.59705   0.25069   0.50000   0.00000  Uiso   1.00
C125   C     0.74931   0.34636   0.50000   0.00000  Uiso   1.00
C126   C     0.65364   0.40295   0.50000   0.00000  Uiso   1.00
C127   C     0.76212   0.37935   0.50000   0.00000  Uiso   1.00
C128   C     0.62065   0.38277   0.50000   0.00000  Uiso   1.00
C129   C     0.61723   0.23788   0.50000   0.00000  Uiso   1.00
C130   C     0.79469   0.39950   0.50000   0.00000  Uiso   1.00
C131   C     0.60050   0.39519   0.50000   0.00000  Uiso   1.00
C132   C     0.60481   0.20531   0.50000   0.00000  Uiso   1.00
C133   C     0.81521   0.38749   0.50000   0.00000  Uiso   1.00
C134   C     0.61251   0.42772   0.50000   0.00000  Uiso   1.00
C135   C     0.57228   0.18479   0.50000   0.00000  Uiso   1.00
C136   C     0.80267   0.35484   0.50000   0.00000  Uiso   1.00
C137   C     0.64516   0.44783   0.50000   0.00000  Uiso   1.00
C138   C     0.55217   0.19733   0.50000   0.00000  Uiso   1.00
C139   C     0.77016   0.33469   0.50000   0.00000  Uiso   1.00
C140   C     0.66531   0.43547   0.50000   0.00000  Uiso   1.00
C141   C     0.56453   0.22984   0.50000   0.00000  Uiso   1.00
H142   H     0.25160   0.60940   0.50000   0.00000  Uiso   1.00
H143   H     0.39060   0.64221   0.50000   0.00000  Uiso   1.00
H144   H     0.35779   0.74840   0.50000   0.00000  Uiso   1.00
H145   H     0.19611   0.57549   0.50000   0.00000  Uiso   1.00
H146   H     0.42451   0.62062   0.50000   0.00000  Uiso   1.00
H147   H     0.37938   0.80389   0.50000   0.00000  Uiso   1.00
H148   H     0.18217   0.65509   0.50000   0.00000  Uiso   1.00
H149   H     0.34491   0.52708   0.50000   0.00000  Uiso   1.00
H150   H     0.47292   0.81783   0.50000   0.00000  Uiso   1.00
H151   H     0.23897   0.69029   0.50000   0.00000  Uiso   1.00
H152   H     0.30971   0.54868   0.50000   0.00000  Uiso   1.00
H153   H     0.45132   0.76103   0.50000   0.00000  Uiso   1.00
H154   H     0.74840   0.39060   0.50000   0.00000  Uiso   1.00
H155   H     0.60940   0.35779   0.50000   0.00000  Uiso   1.00
H156   H     0.64221   0.25160   0.50000   0.00000  Uiso   1.00
H157   H     0.80389   0.42451   0.50000   0.00000  Uiso   1.00
H158   H     0.57549   0.37938   0.50000   0.00000  Uiso   1.00
H159   H     0.62062   0.19611   0.50000   0.00000  Uiso   1.00
H160   H     0.81783   0.34491   0.50000   0.00000  Uiso   1.00
H161   H     0.65509   0.47292   0.50000   0.00000  Uiso   1.00
H162   H     0.52708   0.18217   0.50000   0.00000  Uiso   1.00
H163   H     0.76103   0.30971   0.50000   0.00000  Uiso   1.00
H164   H     0.69029   0.45132   0.50000   0.00000  Uiso   1.00
H165   H     0.54868   0.23897   0.50000   0.00000  Uiso   1.00
loop_
_geom_bond_atom_site_label_1
_geom_bond_atom_site_label_2
_geom_bond_distance
_geom_bond_site_symmetry_2
_ccdc_geom_bond_type
N1     C17     1.320   .     S
N1     C16     1.323   .     S
N2     C24     1.320   .     S
N2     C23     1.323   .     S
N3     C31     1.320   .     S
N3     C30     1.323   .     S
N4     C38     1.320   .     S
N4     C37     1.323   .     S
N5     C45     1.320   .     S
N5     C44     1.323   .     S
N6     C51     1.323   .     S
N6     C52     1.320   .     S
N7     C20     1.309   .     S
N8     C27     1.309   .     S
N8     C11     1.165   .     S
N9     C34     1.309   .     S
C10    C41     1.309   .     S
C11    C48     1.309   .     S
C12    C55     1.309   .     S
C16    H58     0.986   .     S
C16    C115    1.489   .     S
C17    C18     1.291   .     S
C17    C22     1.285   .     S
C18    C19     1.281   .     S
C18    H59     0.984   .     S
C19    H61     0.990   .     S
C19    C20     1.277   .     S
C20    C21     1.282   .     S
C21    C22     1.280   .     S
C21    H62     0.989   .     S
C22    H60     0.990   .     S
C23    H63     0.986   .     S
C23    C116    1.489   .     S
C24    C29     1.285   .     S
C24    C25     1.291   .     S
C25    H64     0.984   .     S
C25    C26     1.281   .     S
C26    C27     1.277   .     S
C26    H66     0.990   .     S
C27    C28     1.282   .     S
C28    H67     0.989   .     S
C28    C29     1.280   .     S
C29    H65     0.990   .     S
C30    H68     0.986   .     S
C30    C117    1.489   .     S
C31    C36     1.285   .     S
C31    C32     1.291   .     S
C32    C33     1.281   .     S
C32    H69     0.984   .     S
C33    C34     1.277   .     S
C33    H71     0.990   .     S
C34    C35     1.282   .     S
C35    C36     1.280   .     S
C35    H72     0.989   .     S
C36    H70     0.990   .     S
C37    H73     0.986   .     S
C37    C133    1.489   .     S
C38    C39     1.291   .     S
C38    C43     1.285   .     S
C39    C40     1.281   .     S
C39    H74     0.984   .     S
C40    H76     0.990   .     S
C40    C41     1.277   .     S
C41    C42     1.282   .     S
C42    C43     1.280   .     S
C42    H77     0.989   .     S
C43    H75     0.990   .     S
C44    C134    1.489   .     S
C44    H78     0.986   .     S
C45    C50     1.285   .     S
C45    C46     1.291   .     S
C46    H79     0.984   .     S
C46    C47     1.281   .     S
C47    H81     0.990   .     S
C47    C48     1.277   .     S
C48    C49     1.282   .     S
C49    H82     0.989   .     S
C49    C50     1.280   .     S
C50    H80     0.990   .     S
C51    H83     0.986   .     S
C51    C135    1.489   .     S
C52    C53     1.291   .     S
C52    C57     1.285   .     S
C53    H84     0.984   .     S
C53    C54     1.281   .     S
C54    H86     0.990   .     S
C54    C55     1.277   .     S
C55    C56     1.282   .     S
C56    C57     1.280   .     S
C56    H87     0.989   .     S
C57    H85     0.990   .     S
C88    N94     1.362   .     S
C88    N95     1.361   .     S
C88    O100    1.412   .     S
C89    N95     1.362   .     S
C89    O101    1.412   .     S
C89    N96     1.361   .     S
C90    N96     1.362   .     S
C90    N94     1.361   .     S
C90    O102    1.412   .     S
C91    N98     1.361   .     S
C91    N97     1.362   .     S
C91    O103    1.412   .     S
C92    N98     1.362   .     S
C92    O104    1.412   .     S
C92    N99     1.361   .     S
C93    N97     1.361   .     S
C93    N99     1.362   .     S
C93    O105    1.412   .     S
O100   C106    1.419   .     S
O101   C107    1.419   .     S
O102   C108    1.419   .     S
O103   C124    1.419   .     S
O104   C125    1.419   .     S
O105   C126    1.419   .     S
C106   C111    1.428   .     S
C106   C123    1.414   .     S
C107   C109    1.428   .     S
C107   C121    1.414   .     S
C108   C110    1.428   .     S
C108   C122    1.414   .     S
C109   C112    1.411   .     S
C109   H142    1.074   .     S
C110   C113    1.411   .     S
C110   H143    1.074   .     S
C111   H144    1.074   .     S
C111   C114    1.411   .     S
C112   C115    1.412   .     S
C112   H145    1.086   .     S
C113   H146    1.086   .     S
C113   C116    1.412   .     S
C114   H147    1.086   .     S
C114   C117    1.412   .     S
C115   C118    1.414   .     S
C116   C119    1.414   .     S
C117   C120    1.414   .     S
C118   H148    1.085   .     S
C118   C121    1.408   .     S
C119   C122    1.408   .     S
C119   H149    1.085   .     S
C120   H150    1.085   .     S
C120   C123    1.408   .     S
C121   H151    1.085   .     S
C122   H152    1.085   .     S
C123   H153    1.085   .     S
C124   C129    1.428   .     S
C124   C141    1.414   .     S
C125   C139    1.414   .     S
C125   C127    1.428   .     S
C126   C128    1.428   .     S
C126   C140    1.414   .     S
C127   C130    1.411   .     S
C127   H154    1.074   .     S
C128   C131    1.411   .     S
C128   H155    1.074   .     S
C129   H156    1.074   .     S
C129   C132    1.411   .     S
C130   C133    1.412   .     S
C130   H157    1.086   .     S
C131   H158    1.086   .     S
C131   C134    1.412   .     S
C132   H159    1.086   .     S
C132   C135    1.412   .     S
C133   C136    1.414   .     S
C134   C137    1.414   .     S
C135   C138    1.414   .     S
C136   C139    1.408   .     S
C136   H160    1.085   .     S
C137   C140    1.408   .     S
C137   H161    1.085   .     S
C138   H162    1.085   .     S
C138   C141    1.408   .     S
C139   H163    1.085   .     S
C140   H164    1.085   .     S
C141   H165    1.085   .     S
