data_COF-42-bnn
_audit_creation_date              2016-12-13
_audit_creation_method            'Materials Studio'
_symmetry_space_group_name_H-M    'P1'
_symmetry_Int_Tables_number       1
_symmetry_cell_setting            triclinic
loop_
_symmetry_equiv_pos_as_xyz
  x,y,z
_cell_length_a                    29.9768
_cell_length_b                    29.9768
_cell_length_c                    4.0500
_cell_angle_alpha                 90.0000
_cell_angle_beta                  90.0000
_cell_angle_gamma                 120.0000
loop_
_atom_site_label
_atom_site_type_symbol
_atom_site_fract_x
_atom_site_fract_y
_atom_site_fract_z
_atom_site_U_iso_or_equiv
_atom_site_adp_type
_atom_site_occupancy
H1     H     0.33610   0.32400  -0.21820   0.00000  Uiso   1.00
H2     H     0.42470   0.34720   0.22440   0.00000  Uiso   1.00
H3     H     0.67600   0.01210  -0.21820   0.00000  Uiso   1.00
H4     H     0.65280   0.07750   0.22440   0.00000  Uiso   1.00
H5     H     0.98790   0.66390  -0.21820   0.00000  Uiso   1.00
H6     H     0.92250   0.57530   0.22440   0.00000  Uiso   1.00
H7     H     0.66390   0.67600  -0.21820   0.00000  Uiso   1.00
H8     H     0.57530   0.65280   0.22440   0.00000  Uiso   1.00
H9     H     0.32400   0.98790  -0.21820   0.00000  Uiso   1.00
H10    H     0.34720   0.92250   0.22440   0.00000  Uiso   1.00
H11    H     0.01210   0.33610  -0.21820   0.00000  Uiso   1.00
H12    H     0.07750   0.42470   0.22440   0.00000  Uiso   1.00
H13    H     0.66390   0.67600   0.21820   0.00000  Uiso   1.00
H14    H     0.57530   0.65280  -0.22440   0.00000  Uiso   1.00
H15    H     0.32400   0.98790   0.21820   0.00000  Uiso   1.00
H16    H     0.34720   0.92250  -0.22440   0.00000  Uiso   1.00
H17    H     0.01210   0.33610   0.21820   0.00000  Uiso   1.00
H18    H     0.07750   0.42470  -0.22440   0.00000  Uiso   1.00
H19    H     0.33610   0.32400   0.21820   0.00000  Uiso   1.00
H20    H     0.42470   0.34720  -0.22440   0.00000  Uiso   1.00
H21    H     0.67600   0.01210   0.21820   0.00000  Uiso   1.00
H22    H     0.65280   0.07750  -0.22440   0.00000  Uiso   1.00
H23    H     0.98790   0.66390   0.21820   0.00000  Uiso   1.00
H24    H     0.92250   0.57530  -0.22440   0.00000  Uiso   1.00
H25    H     0.65430   0.72140   0.00000   0.00000  Uiso   1.00
H26    H     0.58800   0.52490   0.00000   0.00000  Uiso   1.00
H27    H     0.39080   0.52620   0.00000   0.00000  Uiso   1.00
H28    H     0.26710   0.57760   0.00000   0.00000  Uiso   1.00
H29    H     0.32950   0.55060   0.00000   0.00000  Uiso   1.00
C1     C     0.38350   0.67950   0.00000   0.00000  Uiso   1.00
C2     C     0.37100   0.71720   0.00000   0.00000  Uiso   1.00
C3     C     0.46150   0.44890   0.00000   0.00000  Uiso   1.00
C4     C     0.45120   0.48800   0.00000   0.00000  Uiso   1.00
C5     C     0.46880   0.57680   0.00000   0.00000  Uiso   1.00
C6     C     0.48730   0.53950   0.00000   0.00000  Uiso   1.00
C7     C     0.35900   0.58910   0.00000   0.00000  Uiso   1.00
C8     C     0.59100   0.64610   0.00000   0.00000  Uiso   1.00
O1     O     0.58400   0.59730   0.00000   0.00000  Uiso   1.00
C9     C     0.64680   0.68240   0.00000   0.00000  Uiso   1.00
N1     N     0.41910   0.56300   0.00000   0.00000  Uiso   1.00
N2     N     0.40520   0.59980   0.00000   0.00000  Uiso   1.00
O2     O     0.49800   0.62100   0.00000   0.00000  Uiso   1.00
H30    H     0.27860   0.93290   0.00000   0.00000  Uiso   1.00
H31    H     0.47510   0.06310   0.00000   0.00000  Uiso   1.00
H32    H     0.47380   0.86460   0.00000   0.00000  Uiso   1.00
H33    H     0.42240   0.68950   0.00000   0.00000  Uiso   1.00
H34    H     0.44940   0.77890   0.00000   0.00000  Uiso   1.00
C10    C     0.32050   0.70400   0.00000   0.00000  Uiso   1.00
C11    C     0.28280   0.65380   0.00000   0.00000  Uiso   1.00
C12    C     0.55110   0.01260   0.00000   0.00000  Uiso   1.00
C13    C     0.51200   0.96320   0.00000   0.00000  Uiso   1.00
C14    C     0.42320   0.89200   0.00000   0.00000  Uiso   1.00
C15    C     0.46050   0.94780   0.00000   0.00000  Uiso   1.00
C16    C     0.41090   0.76990   0.00000   0.00000  Uiso   1.00
C17    C     0.35390   0.94490   0.00000   0.00000  Uiso   1.00
O3     O     0.40270   0.98670   0.00000   0.00000  Uiso   1.00
C18    C     0.31760   0.96440   0.00000   0.00000  Uiso   1.00
N3     N     0.43700   0.85610   0.00000   0.00000  Uiso   1.00
N4     N     0.40020   0.80540   0.00000   0.00000  Uiso   1.00
O4     O     0.37900   0.87700   0.00000   0.00000  Uiso   1.00
H35    H     0.06710   0.34570   0.00000   0.00000  Uiso   1.00
H36    H     0.93690   0.41200   0.00000   0.00000  Uiso   1.00
H37    H     0.13540   0.60920   0.00000   0.00000  Uiso   1.00
H38    H     0.31050   0.73290   0.00000   0.00000  Uiso   1.00
H39    H     0.22110   0.67050   0.00000   0.00000  Uiso   1.00
C19    C     0.29600   0.61650   0.00000   0.00000  Uiso   1.00
C20    C     0.34620   0.62900   0.00000   0.00000  Uiso   1.00
C21    C     0.98740   0.53850   0.00000   0.00000  Uiso   1.00
C22    C     0.03680   0.54880   0.00000   0.00000  Uiso   1.00
C23    C     0.10800   0.53120   0.00000   0.00000  Uiso   1.00
C24    C     0.05220   0.51270   0.00000   0.00000  Uiso   1.00
C25    C     0.23010   0.64100   0.00000   0.00000  Uiso   1.00
C26    C     0.05510   0.40900   0.00000   0.00000  Uiso   1.00
O5     O     0.01330   0.41600   0.00000   0.00000  Uiso   1.00
C27    C     0.03560   0.35320   0.00000   0.00000  Uiso   1.00
N5     N     0.14390   0.58090   0.00000   0.00000  Uiso   1.00
N6     N     0.19460   0.59480   0.00000   0.00000  Uiso   1.00
O6     O     0.12300   0.50200   0.00000   0.00000  Uiso   1.00
H40    H     0.34570   0.27860   0.00000   0.00000  Uiso   1.00
H41    H     0.41200   0.47510   0.00000   0.00000  Uiso   1.00
H42    H     0.60920   0.47380   0.00000   0.00000  Uiso   1.00
H43    H     0.73290   0.42240   0.00000   0.00000  Uiso   1.00
H44    H     0.67050   0.44940   0.00000   0.00000  Uiso   1.00
C28    C     0.61650   0.32050   0.00000   0.00000  Uiso   1.00
C29    C     0.62900   0.28280   0.00000   0.00000  Uiso   1.00
C30    C     0.53850   0.55110   0.00000   0.00000  Uiso   1.00
C31    C     0.54880   0.51200   0.00000   0.00000  Uiso   1.00
C32    C     0.53120   0.42320   0.00000   0.00000  Uiso   1.00
C33    C     0.51270   0.46050   0.00000   0.00000  Uiso   1.00
C34    C     0.64100   0.41090   0.00000   0.00000  Uiso   1.00
C35    C     0.40900   0.35390   0.00000   0.00000  Uiso   1.00
O7     O     0.41600   0.40270   0.00000   0.00000  Uiso   1.00
C36    C     0.35320   0.31760   0.00000   0.00000  Uiso   1.00
N7     N     0.58090   0.43700   0.00000   0.00000  Uiso   1.00
N8     N     0.59480   0.40020   0.00000   0.00000  Uiso   1.00
O8     O     0.50200   0.37900   0.00000   0.00000  Uiso   1.00
H45    H     0.72140   0.06710   0.00000   0.00000  Uiso   1.00
H46    H     0.52490   0.93690   0.00000   0.00000  Uiso   1.00
H47    H     0.52620   0.13540   0.00000   0.00000  Uiso   1.00
H48    H     0.57760   0.31050   0.00000   0.00000  Uiso   1.00
H49    H     0.55060   0.22110   0.00000   0.00000  Uiso   1.00
C37    C     0.67950   0.29600   0.00000   0.00000  Uiso   1.00
C38    C     0.71720   0.34620   0.00000   0.00000  Uiso   1.00
C39    C     0.44890   0.98740   0.00000   0.00000  Uiso   1.00
C40    C     0.48800   0.03680   0.00000   0.00000  Uiso   1.00
C41    C     0.57680   0.10800   0.00000   0.00000  Uiso   1.00
C42    C     0.53950   0.05220   0.00000   0.00000  Uiso   1.00
C43    C     0.58910   0.23010   0.00000   0.00000  Uiso   1.00
C44    C     0.64610   0.05510   0.00000   0.00000  Uiso   1.00
O9     O     0.59730   0.01330   0.00000   0.00000  Uiso   1.00
C45    C     0.68240   0.03560   0.00000   0.00000  Uiso   1.00
N9     N     0.56300   0.14390   0.00000   0.00000  Uiso   1.00
N10    N     0.59980   0.19460   0.00000   0.00000  Uiso   1.00
O10    O     0.62100   0.12300   0.00000   0.00000  Uiso   1.00
H50    H     0.93290   0.65430   0.00000   0.00000  Uiso   1.00
H51    H     0.06310   0.58800   0.00000   0.00000  Uiso   1.00
H52    H     0.86460   0.39080   0.00000   0.00000  Uiso   1.00
H53    H     0.68950   0.26710   0.00000   0.00000  Uiso   1.00
H54    H     0.77890   0.32950   0.00000   0.00000  Uiso   1.00
C46    C     0.70400   0.38350   0.00000   0.00000  Uiso   1.00
C47    C     0.65380   0.37100   0.00000   0.00000  Uiso   1.00
C48    C     0.01260   0.46150   0.00000   0.00000  Uiso   1.00
C49    C     0.96320   0.45120   0.00000   0.00000  Uiso   1.00
C50    C     0.89200   0.46880   0.00000   0.00000  Uiso   1.00
C51    C     0.94780   0.48730   0.00000   0.00000  Uiso   1.00
C52    C     0.76990   0.35900   0.00000   0.00000  Uiso   1.00
C53    C     0.94490   0.59100   0.00000   0.00000  Uiso   1.00
O11    O     0.98670   0.58400   0.00000   0.00000  Uiso   1.00
C54    C     0.96440   0.64680   0.00000   0.00000  Uiso   1.00
N11    N     0.85610   0.41910   0.00000   0.00000  Uiso   1.00
N12    N     0.80540   0.40520   0.00000   0.00000  Uiso   1.00
O12    O     0.87700   0.49800   0.00000   0.00000  Uiso   1.00
loop_
_geom_bond_atom_site_label_1
_geom_bond_atom_site_label_2
_geom_bond_distance
_geom_bond_site_symmetry_2
_ccdc_geom_bond_type
H1     C36     1.086   .     S
H2     C35     1.087   .     S
H3     C45     1.086   .     S
H4     C44     1.087   .     S
H5     C54     1.086   .     S
H6     C53     1.087   .     S
H7     C9      1.086   .     S
H8     C8      1.087   .     S
H9     C18     1.086   .     S
H10    C17     1.087   .     S
H11    C27     1.086   .     S
H12    C26     1.087   .     S
H13    C9      1.086   .     S
H14    C8      1.087   .     S
H15    C18     1.086   .     S
H16    C17     1.087   .     S
H17    C27     1.086   .     S
H18    C26     1.087   .     S
H19    C36     1.086   .     S
H20    C35     1.087   .     S
H21    C45     1.086   .     S
H22    C44     1.087   .     S
H23    C54     1.086   .     S
H24    C53     1.087   .     S
H25    C9      1.074   .     S
H26    C31     1.037   .     S
H27    N1      1.000   .     S
H28    C19     1.049   .     S
H29    C7      1.046   .     S
C1     C20     1.360   .     S
C1     C2      1.357   .     S
C1     H33     1.049   .     S
C2     C10     1.360   .     S
C2     C16     1.427   .     S
C3     C33     1.394   .     S
C3     C4      1.353   .     S
C3     O7      1.375   .     S
C4     C6      1.373   .     S
C4     H41     1.037   .     S
C5     N1      1.332   .     S
C5     O2      1.167   .     S
C5     C6      1.476   .     S
C6     C30     1.394   .     S
C7     N2      1.256   .     S
C7     C20     1.427   .     S
C8     C9      1.470   .     S
C8     O1      1.370   .     S
O1     C30     1.375   .     S
N1     N2      1.360   .     S
H30    C18     1.074   .     S
H31    C40     1.037   .     S
H32    N3      1.000   .     S
H34    C16     1.046   .     S
C10    H38     1.049   .     S
C10    C11     1.357   .     S
C11    C19     1.360   .     S
C11    C25     1.427   .     S
C12    O9      1.375   .     S
C12    C42     1.394   .     S
C13    H46     1.037   .     S
C13    C15     1.373   .     S
C14    C15     1.476   .     S
C14    O4      1.167   .     S
C14    N3      1.332   .     S
C15    C39     1.394   .     S
C16    N4      1.256   .     S
C17    C18     1.470   .     S
C17    O3      1.370   .     S
O3     C39     1.375   .     S
N3     N4      1.360   .     S
H35    C27     1.074   .     S
H36    C49     1.037   .     S
H37    N5      1.000   .     S
H39    C25     1.046   .     S
C19    C20     1.357   .     S
C21    C51     1.394   .     S
C21    O11     1.375   .     S
C22    H51     1.037   .     S
C22    C24     1.373   .     S
C23    O6      1.167   .     S
C23    C24     1.476   .     S
C23    N5      1.332   .     S
C24    C48     1.394   .     S
C25    N6      1.256   .     S
C26    C27     1.470   .     S
C26    O5      1.370   .     S
O5     C48     1.375   .     S
N5     N6      1.360   .     S
H40    C36     1.074   .     S
H42    N7      1.000   .     S
H43    C46     1.049   .     S
H44    C34     1.046   .     S
C28    H48     1.049   .     S
C28    C29     1.357   .     S
C28    C47     1.360   .     S
C29    C37     1.360   .     S
C29    C43     1.427   .     S
C30    C31     1.353   .     S
C31    C33     1.373   .     S
C32    C33     1.476   .     S
C32    N7      1.332   .     S
C32    O8      1.167   .     S
C34    C47     1.427   .     S
C34    N8      1.256   .     S
C35    O7      1.370   .     S
C35    C36     1.470   .     S
N7     N8      1.360   .     S
H45    C45     1.074   .     S
H47    N9      1.000   .     S
H49    C43     1.046   .     S
C37    C38     1.357   .     S
C37    H53     1.049   .     S
C38    C52     1.427   .     S
C38    C46     1.360   .     S
C40    C42     1.373   .     S
C41    O10     1.167   .     S
C41    N9      1.332   .     S
C41    C42     1.476   .     S
C43    N10     1.256   .     S
C44    O9      1.370   .     S
C44    C45     1.470   .     S
N9     N10     1.360   .     S
H50    C54     1.074   .     S
H52    N11     1.000   .     S
H54    C52     1.046   .     S
C46    C47     1.357   .     S
C49    C51     1.373   .     S
C50    N11     1.332   .     S
C50    C51     1.476   .     S
C50    O12     1.167   .     S
C52    N12     1.256   .     S
C53    O11     1.370   .     S
C53    C54     1.470   .     S
N11    N12     1.360   .     S
