data_COF-8
_audit_creation_date              2016-12-13
_audit_creation_method            'Materials Studio'
_symmetry_space_group_name_H-M    'P1'
_symmetry_Int_Tables_number       1
_symmetry_cell_setting            triclinic
loop_
_symmetry_equiv_pos_as_xyz
  x,y,z
_cell_length_a                    22.7331
_cell_length_b                    22.7331
_cell_length_c                    3.4764
_cell_angle_alpha                 90.0000
_cell_angle_beta                  90.0000
_cell_angle_gamma                 120.0000
loop_
_atom_site_label
_atom_site_type_symbol
_atom_site_fract_x
_atom_site_fract_y
_atom_site_fract_z
_atom_site_U_iso_or_equiv
_atom_site_adp_type
_atom_site_occupancy
B1     B     0.47931   0.95861   0.50000   0.00000  Uiso   1.00
B2     B     0.04139   0.52070   0.50000   0.00000  Uiso   1.00
B3     B     0.47931   0.52070   0.50000   0.00000  Uiso   1.00
O1     O     0.08202   0.48714   0.50000   0.00000  Uiso   1.00
C1     C     0.92475   0.40622   0.50000   0.00000  Uiso   1.00
C2     C     0.85418   0.37031   0.50000   0.00000  Uiso   1.00
C3     C     0.27046   0.60362   0.50000   0.00000  Uiso   1.00
C4     C     0.14673   0.54343   0.50000   0.00000  Uiso   1.00
C5     C     0.20677   0.54179   0.50000   0.00000  Uiso   1.00
H1     H     0.20114   0.49199   0.50000   0.00000  Uiso   1.00
H2     H     0.95199   0.37847   0.50000   0.00000  Uiso   1.00
H3     H     0.82803   0.31537   0.50000   0.00000  Uiso   1.00
O2     O     0.51286   0.59488   0.50000   0.00000  Uiso   1.00
C6     C     0.59378   0.51853   0.50000   0.00000  Uiso   1.00
C7     C     0.62969   0.48387   0.50000   0.00000  Uiso   1.00
C8     C     0.39638   0.66684   0.50000   0.00000  Uiso   1.00
C9     C     0.45657   0.60330   0.50000   0.00000  Uiso   1.00
C10    C     0.45821   0.66498   0.50000   0.00000  Uiso   1.00
H4     H     0.50801   0.70915   0.50000   0.00000  Uiso   1.00
H5     H     0.62153   0.57352   0.50000   0.00000  Uiso   1.00
H6     H     0.68463   0.51266   0.50000   0.00000  Uiso   1.00
O3     O     0.40512   0.91798   0.50000   0.00000  Uiso   1.00
C11    C     0.48147   0.07525   0.50000   0.00000  Uiso   1.00
C12    C     0.51613   0.14582   0.50000   0.00000  Uiso   1.00
C13    C     0.33316   0.72954   0.50000   0.00000  Uiso   1.00
C14    C     0.39670   0.85327   0.50000   0.00000  Uiso   1.00
C15    C     0.33502   0.79323   0.50000   0.00000  Uiso   1.00
H7     H     0.29085   0.79886   0.50000   0.00000  Uiso   1.00
H8     H     0.42648   0.04801   0.50000   0.00000  Uiso   1.00
H9     H     0.48734   0.17197   0.50000   0.00000  Uiso   1.00
O4     O     0.51286   0.91798   0.50000   0.00000  Uiso   1.00
C16    C     0.59378   0.07525   0.50000   0.00000  Uiso   1.00
C17    C     0.62969   0.14582   0.50000   0.00000  Uiso   1.00
C18    C     0.39638   0.72954   0.50000   0.00000  Uiso   1.00
C19    C     0.45657   0.85327   0.50000   0.00000  Uiso   1.00
C20    C     0.45821   0.79323   0.50000   0.00000  Uiso   1.00
H10    H     0.50801   0.79886   0.50000   0.00000  Uiso   1.00
H11    H     0.62153   0.04801   0.50000   0.00000  Uiso   1.00
H12    H     0.68463   0.17197   0.50000   0.00000  Uiso   1.00
O5     O     0.40512   0.48714   0.50000   0.00000  Uiso   1.00
C21    C     0.48147   0.40622   0.50000   0.00000  Uiso   1.00
C22    C     0.51613   0.37031   0.50000   0.00000  Uiso   1.00
C23    C     0.33316   0.60362   0.50000   0.00000  Uiso   1.00
C24    C     0.39670   0.54343   0.50000   0.00000  Uiso   1.00
C25    C     0.33502   0.54179   0.50000   0.00000  Uiso   1.00
H13    H     0.29085   0.49199   0.50000   0.00000  Uiso   1.00
H14    H     0.42648   0.37847   0.50000   0.00000  Uiso   1.00
H15    H     0.48734   0.31537   0.50000   0.00000  Uiso   1.00
O6     O     0.08202   0.59488   0.50000   0.00000  Uiso   1.00
C26    C     0.92475   0.51853   0.50000   0.00000  Uiso   1.00
C27    C     0.85418   0.48387   0.50000   0.00000  Uiso   1.00
C28    C     0.27046   0.66684   0.50000   0.00000  Uiso   1.00
C29    C     0.14673   0.60330   0.50000   0.00000  Uiso   1.00
C30    C     0.20677   0.66498   0.50000   0.00000  Uiso   1.00
H16    H     0.20114   0.70915   0.50000   0.00000  Uiso   1.00
H17    H     0.95199   0.57352   0.50000   0.00000  Uiso   1.00
H18    H     0.82803   0.51266   0.50000   0.00000  Uiso   1.00
C31    C     0.63092   0.26184   0.50000   0.00000  Uiso   1.00
C32    C     0.51889   0.03777   0.50000   0.00000  Uiso   1.00
C33    C     0.59263   0.18525   0.50000   0.00000  Uiso   1.00
C34    C     0.73816   0.36908   0.50000   0.00000  Uiso   1.00
C35    C     0.96223   0.48112   0.50000   0.00000  Uiso   1.00
C36    C     0.81475   0.40738   0.50000   0.00000  Uiso   1.00
C37    C     0.63092   0.36908   0.50000   0.00000  Uiso   1.00
C38    C     0.51888   0.48112   0.50000   0.00000  Uiso   1.00
C39    C     0.59263   0.40738   0.50000   0.00000  Uiso   1.00
C40    C     0.59596   0.29798   0.50000   0.00000  Uiso   1.00
C41    C     0.70202   0.29798   0.50000   0.00000  Uiso   1.00
C42    C     0.70202   0.40404   0.50000   0.00000  Uiso   1.00
H19    H     0.72995   0.27096   0.50000   0.00000  Uiso   1.00
H20    H     0.72904   0.45900   0.50000   0.00000  Uiso   1.00
H21    H     0.54100   0.27005   0.50000   0.00000  Uiso   1.00
loop_
_geom_bond_atom_site_label_1
_geom_bond_atom_site_label_2
_geom_bond_distance
_geom_bond_site_symmetry_2
_ccdc_geom_bond_type
B1     O4      1.463   .     S
B1     O3      1.463   .     S
B2     O1      1.463   .     S
B2     O6      1.463   .     S
B3     O5      1.463   .     S
B3     C38     1.558   .     S
B3     O2      1.463   .     S
O1     C4      1.385   .     S
C1     H2      1.083   .     S
C1     C2      1.389   .     S
C1     C35     1.474   .     S
C2     C36     1.506   .     S
C2     H3      1.082   .     S
C3     C5      1.427   .     S
C3     C23     1.425   .     S
C3     C28     1.437   .     S
C4     C29     1.361   .     S
C4     C5      1.384   .     S
C5     H1      1.074   .     S
O2     C9      1.385   .     S
C6     C7      1.389   .     S
C6     C38     1.474   .     S
C6     H5      1.083   .     S
C7     H6      1.082   .     S
C7     C39     1.506   .     S
C8     C10     1.427   .     S
C8     C18     1.425   .     S
C8     C23     1.437   .     S
C9     C24     1.361   .     S
C9     C10     1.384   .     S
C10    H4      1.074   .     S
O3     C14     1.385   .     S
C11    H8      1.083   .     S
C11    C32     1.474   .     S
C11    C12     1.389   .     S
C12    H9      1.082   .     S
C12    C33     1.506   .     S
C13    C15     1.427   .     S
C13    C18     1.437   .     S
C13    C28     1.425   .     S
C14    C19     1.361   .     S
C14    C15     1.384   .     S
C15    H7      1.074   .     S
O4     C19     1.385   .     S
C16    H11     1.083   .     S
C16    C32     1.474   .     S
C16    C17     1.389   .     S
C17    H12     1.082   .     S
C17    C33     1.506   .     S
C18    C20     1.427   .     S
C19    C20     1.384   .     S
C20    H10     1.074   .     S
O5     C24     1.385   .     S
C21    H14     1.083   .     S
C21    C22     1.389   .     S
C21    C38     1.474   .     S
C22    C39     1.506   .     S
C22    H15     1.082   .     S
C23    C25     1.427   .     S
C24    C25     1.384   .     S
C25    H13     1.074   .     S
O6     C29     1.385   .     S
C26    C27     1.389   .     S
C26    C35     1.474   .     S
C26    H17     1.083   .     S
C27    H18     1.082   .     S
C27    C36     1.506   .     S
C28    C30     1.427   .     S
C29    C30     1.384   .     S
C30    H16     1.074   .     S
C31    C33     1.508   .     S
C31    C40     1.400   .     S
C31    C41     1.400   .     S
C34    C36     1.508   .     S
C34    C42     1.400   .     S
C34    C41     1.400   .     S
C37    C39     1.508   .     S
C37    C42     1.400   .     S
C37    C40     1.400   .     S
C40    H21     1.082   .     S
C41    H19     1.082   .     S
C42    H20     1.082   .     S
