data_COF-BTA-PDA
_audit_creation_date              2016-12-13
_audit_creation_method            'Materials Studio'
_symmetry_space_group_name_H-M    'P1'
_symmetry_Int_Tables_number       1
_symmetry_cell_setting            triclinic
loop_
_symmetry_equiv_pos_as_xyz
  x,y,z
_cell_length_a                    24.1779
_cell_length_b                    24.1780
_cell_length_c                    3.4000
_cell_angle_alpha                 90.0000
_cell_angle_beta                  90.0000
_cell_angle_gamma                 59.9999
loop_
_atom_site_label
_atom_site_type_symbol
_atom_site_fract_x
_atom_site_fract_y
_atom_site_fract_z
_atom_site_U_iso_or_equiv
_atom_site_adp_type
_atom_site_occupancy
C1     C     0.41079   0.39724   1.46379   0.00000  Uiso   1.00
N1     N     0.39427   0.46627   1.46310   0.00000  Uiso   1.00
C2     C     0.44672   0.48283   1.46625   0.00000  Uiso   1.00
C3     C     0.42946   0.55335   1.47160   0.00000  Uiso   1.00
C4     C     0.48279   0.57052   1.47694   0.00000  Uiso   1.00
H1     H     0.46293   0.35763   1.46528   0.00000  Uiso   1.00
H2     H     0.37740   0.59266   1.47188   0.00000  Uiso   1.00
H3     H     0.47005   0.62279   1.48155   0.00000  Uiso   1.00
C5     C     0.58923   0.60277   1.47692   0.00000  Uiso   1.00
N2     N     0.60572   0.53375   1.47677   0.00000  Uiso   1.00
C6     C     0.55327   0.51716   1.47521   0.00000  Uiso   1.00
C7     C     0.57054   0.44663   1.47016   0.00000  Uiso   1.00
C8     C     0.51721   0.42946   1.46515   0.00000  Uiso   1.00
H4     H     0.53710   0.64242   1.47732   0.00000  Uiso   1.00
H5     H     0.62260   0.40732   1.46942   0.00000  Uiso   1.00
H6     H     0.52994   0.37720   1.46053   0.00000  Uiso   1.00
C9     C     0.19202   0.41073   1.45810   0.00000  Uiso   1.00
N3     N     0.13952   0.39421   1.45764   0.00000  Uiso   1.00
C10    C     0.07050   0.44666   1.46169   0.00000  Uiso   1.00
C11    C     0.01724   0.42940   1.46726   0.00000  Uiso   1.00
C12    C     0.94674   0.48273   1.47353   0.00000  Uiso   1.00
H7     H     0.17950   0.46287   1.46011   0.00000  Uiso   1.00
H8     H     0.02999   0.37734   1.46704   0.00000  Uiso   1.00
H9     H     0.90722   0.46999   1.47830   0.00000  Uiso   1.00
C13    C     0.80806   0.58916   1.47532   0.00000  Uiso   1.00
N4     N     0.86059   0.60566   1.47495   0.00000  Uiso   1.00
C14    C     0.92962   0.55321   1.47248   0.00000  Uiso   1.00
C15    C     0.98288   0.57048   1.46721   0.00000  Uiso   1.00
C16    C     0.05338   0.51715   1.46128   0.00000  Uiso   1.00
H10    H     0.82053   0.53704   1.47521   0.00000  Uiso   1.00
H11    H     0.97014   0.62254   1.46698   0.00000  Uiso   1.00
H12    H     0.09291   0.52988   1.45649   0.00000  Uiso   1.00
C17    C     0.39730   0.19196   1.46423   0.00000  Uiso   1.00
N5     N     0.46633   0.13946   1.46286   0.00000  Uiso   1.00
C18    C     0.48289   0.07044   1.46624   0.00000  Uiso   1.00
C19    C     0.55341   0.01718   1.47089   0.00000  Uiso   1.00
C20    C     0.57059   0.94668   1.47647   0.00000  Uiso   1.00
H13    H     0.35769   0.17944   1.46640   0.00000  Uiso   1.00
H14    H     0.59272   0.02993   1.47050   0.00000  Uiso   1.00
H15    H     0.62285   0.90716   1.48056   0.00000  Uiso   1.00
C21    C     0.60283   0.80799   1.47691   0.00000  Uiso   1.00
N6     N     0.53381   0.86053   1.47744   0.00000  Uiso   1.00
C22    C     0.51723   0.92955   1.47565   0.00000  Uiso   1.00
C23    C     0.44669   0.98282   1.47130   0.00000  Uiso   1.00
C24    C     0.42952   0.05332   1.46606   0.00000  Uiso   1.00
H16    H     0.64249   0.82047   1.47663   0.00000  Uiso   1.00
H17    H     0.40738   0.97008   1.47123   0.00000  Uiso   1.00
H18    H     0.37726   0.09285   1.46195   0.00000  Uiso   1.00
C25    C     0.63003   0.63641   1.47664   0.00000  Uiso   1.00
C26    C     0.63647   0.73356   1.47664   0.00000  Uiso   1.00
C27    C     0.73362   0.62996   1.47588   0.00000  Uiso   1.00
C28    C     0.59996   0.70323   1.47689   0.00000  Uiso   1.00
C29    C     0.70329   0.69681   1.47613   0.00000  Uiso   1.00
C30    C     0.69687   0.59989   1.47614   0.00000  Uiso   1.00
H19    H     0.72024   0.54818   1.47594   0.00000  Uiso   1.00
H20    H     0.54824   0.73158   1.47728   0.00000  Uiso   1.00
H21    H     0.73164   0.72017   1.47594   0.00000  Uiso   1.00
C31    C     0.37002   0.36358   1.46287   0.00000  Uiso   1.00
C32    C     0.36364   0.26639   1.46307   0.00000  Uiso   1.00
C33    C     0.26645   0.36996   1.46017   0.00000  Uiso   1.00
C34    C     0.40012   0.29675   1.46390   0.00000  Uiso   1.00
C35    C     0.29681   0.30312   1.46121   0.00000  Uiso   1.00
C36    C     0.30318   0.40006   1.46100   0.00000  Uiso   1.00
H22    H     0.27979   0.45178   1.46020   0.00000  Uiso   1.00
H23    H     0.45184   0.26843   1.46534   0.00000  Uiso   1.00
H24    H     0.26848   0.27973   1.46057   0.00000  Uiso   1.00
loop_
_geom_bond_atom_site_label_1
_geom_bond_atom_site_label_2
_geom_bond_distance
_geom_bond_site_symmetry_2
_ccdc_geom_bond_type
C1     H1      1.140   .     S
C1     C31     1.561   .     S
C1     N1      1.509   .     S
N1     C2      1.509   .     S
C2     C8      1.540   .     S
C2     C3      1.539   .     S
C3     C4      1.540   .     S
C3     H2      1.136   .     S
C4     C6      1.539   .     S
C4     H3      1.141   .     S
C5     C25     1.561   .     S
C5     H4      1.140   .     S
C5     N2      1.510   .     S
N2     C6      1.509   .     S
C6     C7      1.540   .     S
C7     C8      1.540   .     S
C7     H5      1.136   .     S
C8     H6      1.141   .     S
C9     N3      1.509   .     S
C9     C33     1.561   .     S
C9     H7      1.140   .     S
N3     C10     1.509   .     S
C10    C11     1.539   .     S
C10    C16     1.540   .     S
C11    H8      1.136   .     S
C12    H9      1.141   .     S
C12    C14     1.539   .     S
C13    H10     1.140   .     S
C13    N4      1.510   .     S
C13    C27     1.561   .     S
N4     C14     1.509   .     S
C14    C15     1.540   .     S
C15    H11     1.136   .     S
C16    H12     1.141   .     S
C17    H13     1.140   .     S
C17    C32     1.561   .     S
C17    N5      1.509   .     S
N5     C18     1.509   .     S
C18    C19     1.539   .     S
C18    C24     1.540   .     S
C19    H14     1.136   .     S
C20    H15     1.141   .     S
C20    C22     1.539   .     S
C21    H16     1.140   .     S
C21    N6      1.510   .     S
C21    C26     1.561   .     S
N6     C22     1.509   .     S
C22    C23     1.540   .     S
C23    H17     1.136   .     S
C24    H18     1.141   .     S
C25    C30     1.402   .     S
C25    C28     1.402   .     S
C26    C28     1.402   .     S
C26    C29     1.402   .     S
C27    C30     1.402   .     S
C27    C29     1.402   .     S
C28    H20     1.084   .     S
C29    H21     1.084   .     S
C30    H19     1.084   .     S
C31    C36     1.402   .     S
C31    C34     1.402   .     S
C32    C35     1.402   .     S
C32    C34     1.402   .     S
C33    C36     1.402   .     S
C33    C35     1.402   .     S
C34    H23     1.084   .     S
C35    H24     1.084   .     S
C36    H22     1.084   .     S
