data_COF-43-gra
_audit_creation_date              2016-12-13
_audit_creation_method            'Materials Studio'
_symmetry_space_group_name_H-M    'P1'
_symmetry_Int_Tables_number       1
_symmetry_cell_setting            triclinic
loop_
_symmetry_equiv_pos_as_xyz
  x,y,z
_cell_length_a                    45.3408
_cell_length_b                    45.3408
_cell_length_c                    6.4554
_cell_angle_alpha                 90.0000
_cell_angle_beta                  90.0000
_cell_angle_gamma                 120.0000
loop_
_atom_site_label
_atom_site_type_symbol
_atom_site_fract_x
_atom_site_fract_y
_atom_site_fract_z
_atom_site_U_iso_or_equiv
_atom_site_adp_type
_atom_site_occupancy
H1     H     0.24700   0.32900   0.39680   0.00000  Uiso   1.00
H2     H     0.23650   0.27030   0.10560   0.00000  Uiso   1.00
H3     H     0.66330   0.74920   0.39680   0.00000  Uiso   1.00
H4     H     0.60480   0.70100   0.39460   0.00000  Uiso   1.00
H5     H     0.67100   0.91800   0.39680   0.00000  Uiso   1.00
H6     H     0.72970   0.96620   0.10560   0.00000  Uiso   1.00
H7     H     0.25080   0.91410   0.39680   0.00000  Uiso   1.00
H8     H     0.29900   0.90380   0.39460   0.00000  Uiso   1.00
H9     H     0.08200   0.75300   0.39680   0.00000  Uiso   1.00
H10    H     0.03380   0.76350   0.10560   0.00000  Uiso   1.00
H11    H     0.08590   0.33670   0.39680   0.00000  Uiso   1.00
H12    H     0.09620   0.39520   0.39460   0.00000  Uiso   1.00
H13    H     0.75300   0.67100   0.89680   0.00000  Uiso   1.00
H14    H     0.76350   0.72970   0.60560   0.00000  Uiso   1.00
H15    H     0.33670   0.25080   0.89680   0.00000  Uiso   1.00
H16    H     0.39520   0.29900   0.89460   0.00000  Uiso   1.00
H17    H     0.32900   0.08200   0.89680   0.00000  Uiso   1.00
H18    H     0.27030   0.03380   0.60560   0.00000  Uiso   1.00
H19    H     0.74920   0.08590   0.89680   0.00000  Uiso   1.00
H20    H     0.70100   0.09620   0.89460   0.00000  Uiso   1.00
H21    H     0.91800   0.24700   0.89680   0.00000  Uiso   1.00
H22    H     0.96620   0.23650   0.60560   0.00000  Uiso   1.00
H23    H     0.91410   0.66330   0.89680   0.00000  Uiso   1.00
H24    H     0.90380   0.60480   0.89460   0.00000  Uiso   1.00
H25    H     0.75300   0.67100   0.60320   0.00000  Uiso   1.00
H26    H     0.76350   0.72970   0.89440   0.00000  Uiso   1.00
H27    H     0.33670   0.25080   0.60320   0.00000  Uiso   1.00
H28    H     0.39520   0.29900   0.60540   0.00000  Uiso   1.00
H29    H     0.32900   0.08200   0.60320   0.00000  Uiso   1.00
H30    H     0.27030   0.03380   0.89440   0.00000  Uiso   1.00
H31    H     0.74920   0.08590   0.60320   0.00000  Uiso   1.00
H32    H     0.70100   0.09620   0.60540   0.00000  Uiso   1.00
H33    H     0.91800   0.24700   0.60320   0.00000  Uiso   1.00
H34    H     0.96620   0.23650   0.89440   0.00000  Uiso   1.00
H35    H     0.91410   0.66330   0.60320   0.00000  Uiso   1.00
H36    H     0.90380   0.60480   0.60540   0.00000  Uiso   1.00
H37    H     0.24700   0.32900   0.10320   0.00000  Uiso   1.00
H38    H     0.23650   0.27030   0.39440   0.00000  Uiso   1.00
H39    H     0.66330   0.74920   0.10320   0.00000  Uiso   1.00
H40    H     0.60480   0.70100   0.10540   0.00000  Uiso   1.00
H41    H     0.67100   0.91800   0.10320   0.00000  Uiso   1.00
H42    H     0.72970   0.96620   0.39440   0.00000  Uiso   1.00
H43    H     0.25080   0.91410   0.10320   0.00000  Uiso   1.00
H44    H     0.29900   0.90380   0.10540   0.00000  Uiso   1.00
H45    H     0.08200   0.75300   0.10320   0.00000  Uiso   1.00
H46    H     0.03380   0.76350   0.39440   0.00000  Uiso   1.00
H47    H     0.08590   0.33670   0.10320   0.00000  Uiso   1.00
H48    H     0.09620   0.39520   0.10540   0.00000  Uiso   1.00
H49    H     0.59710   0.36040   0.75000   0.00000  Uiso   1.00
H50    H     0.53820   0.34080   0.75000   0.00000  Uiso   1.00
H51    H     0.64700   0.37490   0.75000   0.00000  Uiso   1.00
H52    H     0.51630   0.23820   0.75000   0.00000  Uiso   1.00
H53    H     0.57490   0.25630   0.75000   0.00000  Uiso   1.00
H54    H     0.30280   0.19810   0.75000   0.00000  Uiso   1.00
H55    H     0.36290   0.13470   0.75000   0.00000  Uiso   1.00
H56    H     0.14980   0.09490   0.75000   0.00000  Uiso   1.00
H57    H     0.09150   0.07730   0.75000   0.00000  Uiso   1.00
H58    H     0.01890   0.95880   0.75000   0.00000  Uiso   1.00
H59    H     0.47870   0.29560   0.75000   0.00000  Uiso   1.00
O1     O     0.36960   0.23770   0.75000   0.00000  Uiso   1.00
O2     O     0.29610   0.09520   0.75000   0.00000  Uiso   1.00
O3     O     0.76250   0.58180   0.75000   0.00000  Uiso   1.00
O4     O     0.90470   0.75250   0.75000   0.00000  Uiso   1.00
N1     N     0.78100   0.53580   0.75000   0.00000  Uiso   1.00
N2     N     0.80410   0.57050   0.75000   0.00000  Uiso   1.00
N3     N     0.86300   0.76380   0.75000   0.00000  Uiso   1.00
N4     N     0.88620   0.79850   0.75000   0.00000  Uiso   1.00
C1     C     0.79040   0.51340   0.75000   0.00000  Uiso   1.00
C2     C     0.79290   0.59320   0.75000   0.00000  Uiso   1.00
C3     C     0.81520   0.63110   0.75000   0.00000  Uiso   1.00
C4     C     0.85080   0.64850   0.75000   0.00000  Uiso   1.00
C5     C     0.86830   0.68400   0.75000   0.00000  Uiso   1.00
C6     C     0.85200   0.70320   0.75000   0.00000  Uiso   1.00
C7     C     0.79890   0.65030   0.75000   0.00000  Uiso   1.00
C8     C     0.81640   0.68580   0.75000   0.00000  Uiso   1.00
C9     C     0.87430   0.74110   0.75000   0.00000  Uiso   1.00
C10    C     0.87690   0.82090   0.75000   0.00000  Uiso   1.00
C11    C     0.07270   0.02280   0.75000   0.00000  Uiso   1.00
C12    C     0.08480   0.99970   0.75000   0.00000  Uiso   1.00
C13    C     0.11910   0.01070   0.75000   0.00000  Uiso   1.00
C14    C     0.14290   0.04490   0.75000   0.00000  Uiso   1.00
C15    C     0.13170   0.06820   0.75000   0.00000  Uiso   1.00
C16    C     0.09740   0.05750   0.75000   0.00000  Uiso   1.00
C17    C     0.73500   0.26920   0.75000   0.00000  Uiso   1.00
C18    C     0.68940   0.28250   0.75000   0.00000  Uiso   1.00
C19    C     0.71190   0.23470   0.75000   0.00000  Uiso   1.00
C20    C     0.67760   0.22400   0.75000   0.00000  Uiso   1.00
C21    C     0.72410   0.29270   0.75000   0.00000  Uiso   1.00
C22    C     0.66650   0.24740   0.75000   0.00000  Uiso   1.00
H60    H     0.63960   0.23670   0.75000   0.00000  Uiso   1.00
H61    H     0.65920   0.19740   0.75000   0.00000  Uiso   1.00
H62    H     0.62510   0.27210   0.75000   0.00000  Uiso   1.00
H63    H     0.76180   0.27810   0.75000   0.00000  Uiso   1.00
H64    H     0.74370   0.31860   0.75000   0.00000  Uiso   1.00
H65    H     0.80190   0.10470   0.75000   0.00000  Uiso   1.00
H66    H     0.86530   0.22820   0.75000   0.00000  Uiso   1.00
H67    H     0.90510   0.05490   0.75000   0.00000  Uiso   1.00
H68    H     0.92270   0.01420   0.75000   0.00000  Uiso   1.00
H69    H     0.04120   0.06010   0.75000   0.00000  Uiso   1.00
H70    H     0.70440   0.18310   0.75000   0.00000  Uiso   1.00
O5     O     0.76230   0.13190   0.75000   0.00000  Uiso   1.00
O6     O     0.90480   0.20090   0.75000   0.00000  Uiso   1.00
O7     O     0.41820   0.18070   0.75000   0.00000  Uiso   1.00
O8     O     0.24750   0.15220   0.75000   0.00000  Uiso   1.00
N5     N     0.46420   0.24520   0.75000   0.00000  Uiso   1.00
N6     N     0.42950   0.23360   0.75000   0.00000  Uiso   1.00
N7     N     0.23620   0.09920   0.75000   0.00000  Uiso   1.00
N8     N     0.20150   0.08770   0.75000   0.00000  Uiso   1.00
C23    C     0.48660   0.27700   0.75000   0.00000  Uiso   1.00
C24    C     0.40680   0.19970   0.75000   0.00000  Uiso   1.00
C25    C     0.36890   0.18410   0.75000   0.00000  Uiso   1.00
C26    C     0.35150   0.20230   0.75000   0.00000  Uiso   1.00
C27    C     0.31600   0.18430   0.75000   0.00000  Uiso   1.00
C28    C     0.29680   0.14880   0.75000   0.00000  Uiso   1.00
C29    C     0.34970   0.14860   0.75000   0.00000  Uiso   1.00
C30    C     0.31420   0.13060   0.75000   0.00000  Uiso   1.00
C31    C     0.25890   0.13320   0.75000   0.00000  Uiso   1.00
C32    C     0.17910   0.05600   0.75000   0.00000  Uiso   1.00
C33    C     0.97720   0.04990   0.75000   0.00000  Uiso   1.00
C34    C     0.00030   0.08510   0.75000   0.00000  Uiso   1.00
C35    C     0.98930   0.10840   0.75000   0.00000  Uiso   1.00
C36    C     0.95510   0.09800   0.75000   0.00000  Uiso   1.00
C37    C     0.93180   0.06350   0.75000   0.00000  Uiso   1.00
C38    C     0.94250   0.03990   0.75000   0.00000  Uiso   1.00
C39    C     0.73080   0.46580   0.75000   0.00000  Uiso   1.00
C40    C     0.71750   0.40690   0.75000   0.00000  Uiso   1.00
C41    C     0.76530   0.47720   0.75000   0.00000  Uiso   1.00
C42    C     0.77600   0.45360   0.75000   0.00000  Uiso   1.00
C43    C     0.70730   0.43140   0.75000   0.00000  Uiso   1.00
C44    C     0.75260   0.41910   0.75000   0.00000  Uiso   1.00
H71    H     0.76330   0.40290   0.75000   0.00000  Uiso   1.00
H72    H     0.80260   0.46180   0.75000   0.00000  Uiso   1.00
H73    H     0.72790   0.35300   0.75000   0.00000  Uiso   1.00
H74    H     0.72190   0.48370   0.75000   0.00000  Uiso   1.00
H75    H     0.68140   0.42510   0.75000   0.00000  Uiso   1.00
H76    H     0.89530   0.69720   0.75000   0.00000  Uiso   1.00
H77    H     0.77180   0.63710   0.75000   0.00000  Uiso   1.00
H78    H     0.94510   0.85020   0.75000   0.00000  Uiso   1.00
H79    H     0.98580   0.90850   0.75000   0.00000  Uiso   1.00
H80    H     0.93990   0.98110   0.75000   0.00000  Uiso   1.00
H81    H     0.81690   0.52130   0.75000   0.00000  Uiso   1.00
O9     O     0.86810   0.63040   0.75000   0.00000  Uiso   1.00
O10    O     0.79910   0.70390   0.75000   0.00000  Uiso   1.00
O11    O     0.81930   0.23750   0.75000   0.00000  Uiso   1.00
O12    O     0.84780   0.09530   0.75000   0.00000  Uiso   1.00
N9     N     0.75480   0.21900   0.75000   0.00000  Uiso   1.00
N10    N     0.76640   0.19590   0.75000   0.00000  Uiso   1.00
N11    N     0.90080   0.13700   0.75000   0.00000  Uiso   1.00
N12    N     0.91230   0.11380   0.75000   0.00000  Uiso   1.00
C45    C     0.72300   0.20960   0.75000   0.00000  Uiso   1.00
C46    C     0.80030   0.20710   0.75000   0.00000  Uiso   1.00
C47    C     0.81590   0.18480   0.75000   0.00000  Uiso   1.00
C48    C     0.79770   0.14920   0.75000   0.00000  Uiso   1.00
C49    C     0.81570   0.13170   0.75000   0.00000  Uiso   1.00
C50    C     0.85120   0.14800   0.75000   0.00000  Uiso   1.00
C51    C     0.85140   0.20110   0.75000   0.00000  Uiso   1.00
C52    C     0.86940   0.18360   0.75000   0.00000  Uiso   1.00
C53    C     0.86680   0.12570   0.75000   0.00000  Uiso   1.00
C54    C     0.94400   0.12310   0.75000   0.00000  Uiso   1.00
C55    C     0.95010   0.92730   0.75000   0.00000  Uiso   1.00
C56    C     0.91490   0.91520   0.75000   0.00000  Uiso   1.00
C57    C     0.89160   0.88090   0.75000   0.00000  Uiso   1.00
C58    C     0.90200   0.85710   0.75000   0.00000  Uiso   1.00
C59    C     0.93650   0.86830   0.75000   0.00000  Uiso   1.00
C60    C     0.96010   0.90260   0.75000   0.00000  Uiso   1.00
C61    C     0.53420   0.26500   0.75000   0.00000  Uiso   1.00
C62    C     0.59310   0.31060   0.75000   0.00000  Uiso   1.00
C63    C     0.52280   0.28810   0.75000   0.00000  Uiso   1.00
C64    C     0.54640   0.32240   0.75000   0.00000  Uiso   1.00
C65    C     0.56860   0.27590   0.75000   0.00000  Uiso   1.00
C66    C     0.58090   0.33350   0.75000   0.00000  Uiso   1.00
H82    H     0.40290   0.63960   0.25000   0.00000  Uiso   1.00
H83    H     0.46180   0.65920   0.25000   0.00000  Uiso   1.00
H84    H     0.35300   0.62510   0.25000   0.00000  Uiso   1.00
H85    H     0.48370   0.76180   0.25000   0.00000  Uiso   1.00
H86    H     0.42510   0.74370   0.25000   0.00000  Uiso   1.00
H87    H     0.69720   0.80190   0.25000   0.00000  Uiso   1.00
H88    H     0.63710   0.86530   0.25000   0.00000  Uiso   1.00
H89    H     0.85020   0.90510   0.25000   0.00000  Uiso   1.00
H90    H     0.90850   0.92270   0.25000   0.00000  Uiso   1.00
H91    H     0.98110   0.04120   0.25000   0.00000  Uiso   1.00
H92    H     0.52130   0.70440   0.25000   0.00000  Uiso   1.00
O13    O     0.63040   0.76230   0.25000   0.00000  Uiso   1.00
O14    O     0.70390   0.90480   0.25000   0.00000  Uiso   1.00
O15    O     0.23750   0.41820   0.25000   0.00000  Uiso   1.00
O16    O     0.09530   0.24750   0.25000   0.00000  Uiso   1.00
N13    N     0.21900   0.46420   0.25000   0.00000  Uiso   1.00
N14    N     0.19590   0.42950   0.25000   0.00000  Uiso   1.00
N15    N     0.13700   0.23620   0.25000   0.00000  Uiso   1.00
N16    N     0.11380   0.20150   0.25000   0.00000  Uiso   1.00
C67    C     0.20960   0.48660   0.25000   0.00000  Uiso   1.00
C68    C     0.20710   0.40680   0.25000   0.00000  Uiso   1.00
C69    C     0.18480   0.36890   0.25000   0.00000  Uiso   1.00
C70    C     0.14920   0.35150   0.25000   0.00000  Uiso   1.00
C71    C     0.13170   0.31600   0.25000   0.00000  Uiso   1.00
C72    C     0.14800   0.29680   0.25000   0.00000  Uiso   1.00
C73    C     0.20110   0.34970   0.25000   0.00000  Uiso   1.00
C74    C     0.18360   0.31420   0.25000   0.00000  Uiso   1.00
C75    C     0.12570   0.25890   0.25000   0.00000  Uiso   1.00
C76    C     0.12310   0.17910   0.25000   0.00000  Uiso   1.00
C77    C     0.92730   0.97720   0.25000   0.00000  Uiso   1.00
C78    C     0.91520   0.00030   0.25000   0.00000  Uiso   1.00
C79    C     0.88090   0.98930   0.25000   0.00000  Uiso   1.00
C80    C     0.85710   0.95510   0.25000   0.00000  Uiso   1.00
C81    C     0.86830   0.93180   0.25000   0.00000  Uiso   1.00
C82    C     0.90260   0.94250   0.25000   0.00000  Uiso   1.00
C83    C     0.26500   0.73080   0.25000   0.00000  Uiso   1.00
C84    C     0.31060   0.71750   0.25000   0.00000  Uiso   1.00
C85    C     0.28810   0.76530   0.25000   0.00000  Uiso   1.00
C86    C     0.32240   0.77600   0.25000   0.00000  Uiso   1.00
C87    C     0.27590   0.70730   0.25000   0.00000  Uiso   1.00
C88    C     0.33350   0.75260   0.25000   0.00000  Uiso   1.00
H93    H     0.36040   0.76330   0.25000   0.00000  Uiso   1.00
H94    H     0.34080   0.80260   0.25000   0.00000  Uiso   1.00
H95    H     0.37490   0.72790   0.25000   0.00000  Uiso   1.00
H96    H     0.23820   0.72190   0.25000   0.00000  Uiso   1.00
H97    H     0.25630   0.68140   0.25000   0.00000  Uiso   1.00
H98    H     0.19810   0.89530   0.25000   0.00000  Uiso   1.00
H99    H     0.13470   0.77180   0.25000   0.00000  Uiso   1.00
H100   H     0.09490   0.94510   0.25000   0.00000  Uiso   1.00
H101   H     0.07730   0.98580   0.25000   0.00000  Uiso   1.00
H102   H     0.95880   0.93990   0.25000   0.00000  Uiso   1.00
H103   H     0.29560   0.81690   0.25000   0.00000  Uiso   1.00
O17    O     0.23770   0.86810   0.25000   0.00000  Uiso   1.00
O18    O     0.09520   0.79910   0.25000   0.00000  Uiso   1.00
O19    O     0.58180   0.81930   0.25000   0.00000  Uiso   1.00
O20    O     0.75250   0.84780   0.25000   0.00000  Uiso   1.00
N17    N     0.53580   0.75480   0.25000   0.00000  Uiso   1.00
N18    N     0.57050   0.76640   0.25000   0.00000  Uiso   1.00
N19    N     0.76380   0.90080   0.25000   0.00000  Uiso   1.00
N20    N     0.79850   0.91230   0.25000   0.00000  Uiso   1.00
C89    C     0.51340   0.72300   0.25000   0.00000  Uiso   1.00
C90    C     0.59320   0.80030   0.25000   0.00000  Uiso   1.00
C91    C     0.63110   0.81590   0.25000   0.00000  Uiso   1.00
C92    C     0.64850   0.79770   0.25000   0.00000  Uiso   1.00
C93    C     0.68400   0.81570   0.25000   0.00000  Uiso   1.00
C94    C     0.70320   0.85120   0.25000   0.00000  Uiso   1.00
C95    C     0.65030   0.85140   0.25000   0.00000  Uiso   1.00
C96    C     0.68580   0.86940   0.25000   0.00000  Uiso   1.00
C97    C     0.74110   0.86680   0.25000   0.00000  Uiso   1.00
C98    C     0.82090   0.94400   0.25000   0.00000  Uiso   1.00
C99    C     0.02280   0.95010   0.25000   0.00000  Uiso   1.00
C100   C     0.99970   0.91490   0.25000   0.00000  Uiso   1.00
C101   C     0.01070   0.89160   0.25000   0.00000  Uiso   1.00
C102   C     0.04490   0.90200   0.25000   0.00000  Uiso   1.00
C103   C     0.06820   0.93650   0.25000   0.00000  Uiso   1.00
C104   C     0.05750   0.96010   0.25000   0.00000  Uiso   1.00
C105   C     0.26920   0.53420   0.25000   0.00000  Uiso   1.00
C106   C     0.28250   0.59310   0.25000   0.00000  Uiso   1.00
C107   C     0.23470   0.52280   0.25000   0.00000  Uiso   1.00
C108   C     0.22400   0.54640   0.25000   0.00000  Uiso   1.00
C109   C     0.29270   0.56860   0.25000   0.00000  Uiso   1.00
C110   C     0.24740   0.58090   0.25000   0.00000  Uiso   1.00
H104   H     0.23670   0.59710   0.25000   0.00000  Uiso   1.00
H105   H     0.19740   0.53820   0.25000   0.00000  Uiso   1.00
H106   H     0.27210   0.64700   0.25000   0.00000  Uiso   1.00
H107   H     0.27810   0.51630   0.25000   0.00000  Uiso   1.00
H108   H     0.31860   0.57490   0.25000   0.00000  Uiso   1.00
H109   H     0.10470   0.30280   0.25000   0.00000  Uiso   1.00
H110   H     0.22820   0.36290   0.25000   0.00000  Uiso   1.00
H111   H     0.05490   0.14980   0.25000   0.00000  Uiso   1.00
H112   H     0.01420   0.09150   0.25000   0.00000  Uiso   1.00
H113   H     0.06010   0.01890   0.25000   0.00000  Uiso   1.00
H114   H     0.18310   0.47870   0.25000   0.00000  Uiso   1.00
O21    O     0.13190   0.36960   0.25000   0.00000  Uiso   1.00
O22    O     0.20090   0.29610   0.25000   0.00000  Uiso   1.00
O23    O     0.18070   0.76250   0.25000   0.00000  Uiso   1.00
O24    O     0.15220   0.90470   0.25000   0.00000  Uiso   1.00
N21    N     0.24520   0.78100   0.25000   0.00000  Uiso   1.00
N22    N     0.23360   0.80410   0.25000   0.00000  Uiso   1.00
N23    N     0.09920   0.86300   0.25000   0.00000  Uiso   1.00
N24    N     0.08770   0.88620   0.25000   0.00000  Uiso   1.00
C111   C     0.27700   0.79040   0.25000   0.00000  Uiso   1.00
C112   C     0.19970   0.79290   0.25000   0.00000  Uiso   1.00
C113   C     0.18410   0.81520   0.25000   0.00000  Uiso   1.00
C114   C     0.20230   0.85080   0.25000   0.00000  Uiso   1.00
C115   C     0.18430   0.86830   0.25000   0.00000  Uiso   1.00
C116   C     0.14880   0.85200   0.25000   0.00000  Uiso   1.00
C117   C     0.14860   0.79890   0.25000   0.00000  Uiso   1.00
C118   C     0.13060   0.81640   0.25000   0.00000  Uiso   1.00
C119   C     0.13320   0.87430   0.25000   0.00000  Uiso   1.00
C120   C     0.05600   0.87690   0.25000   0.00000  Uiso   1.00
C121   C     0.04990   0.07270   0.25000   0.00000  Uiso   1.00
C122   C     0.08510   0.08480   0.25000   0.00000  Uiso   1.00
C123   C     0.10840   0.11910   0.25000   0.00000  Uiso   1.00
C124   C     0.09800   0.14290   0.25000   0.00000  Uiso   1.00
C125   C     0.06350   0.13170   0.25000   0.00000  Uiso   1.00
C126   C     0.03990   0.09740   0.25000   0.00000  Uiso   1.00
C127   C     0.46580   0.73500   0.25000   0.00000  Uiso   1.00
C128   C     0.40690   0.68940   0.25000   0.00000  Uiso   1.00
C129   C     0.47720   0.71190   0.25000   0.00000  Uiso   1.00
C130   C     0.45360   0.67760   0.25000   0.00000  Uiso   1.00
C131   C     0.43140   0.72410   0.25000   0.00000  Uiso   1.00
C132   C     0.41910   0.66650   0.25000   0.00000  Uiso   1.00
H115   H     0.09560   0.06850   0.25000   0.00000  Uiso   1.00
H116   H     0.13510   0.12720   0.25000   0.00000  Uiso   1.00
H117   H     0.16230   0.24390   0.25000   0.00000  Uiso   1.00
H118   H     0.17050   0.42180   0.25000   0.00000  Uiso   1.00
H119   H     0.27470   0.29830   0.25000   0.00000  Uiso   1.00
H120   H     0.63280   0.69080   0.25000   0.00000  Uiso   1.00
H121   H     0.14970   0.18690   0.25000   0.00000  Uiso   1.00
C133   C     0.03420   0.01070   0.25000   0.00000  Uiso   1.00
C134   C     0.02410   0.03520   0.25000   0.00000  Uiso   1.00
C135   C     0.34500   0.64310   0.25000   0.00000  Uiso   1.00
C136   C     0.36930   0.67750   0.25000   0.00000  Uiso   1.00
C137   C     0.24690   0.28640   0.25000   0.00000  Uiso   1.00
C138   C     0.23670   0.31310   0.25000   0.00000  Uiso   1.00
C139   C     0.62090   0.70670   0.25000   0.00000  Uiso   1.00
C140   C     0.64750   0.74360   0.25000   0.00000  Uiso   1.00
H122   H     0.93150   0.02710   0.25000   0.00000  Uiso   1.00
H123   H     0.87280   0.00790   0.25000   0.00000  Uiso   1.00
H124   H     0.75610   0.91840   0.25000   0.00000  Uiso   1.00
H125   H     0.57820   0.74870   0.25000   0.00000  Uiso   1.00
H126   H     0.70170   0.97640   0.25000   0.00000  Uiso   1.00
H127   H     0.30920   0.94200   0.25000   0.00000  Uiso   1.00
H128   H     0.81310   0.96280   0.25000   0.00000  Uiso   1.00
C141   C     0.98930   0.02350   0.25000   0.00000  Uiso   1.00
C142   C     0.96480   0.98890   0.25000   0.00000  Uiso   1.00
C143   C     0.35690   0.70190   0.25000   0.00000  Uiso   1.00
C144   C     0.32250   0.69180   0.25000   0.00000  Uiso   1.00
C145   C     0.71360   0.96050   0.25000   0.00000  Uiso   1.00
C146   C     0.68690   0.92360   0.25000   0.00000  Uiso   1.00
C147   C     0.29330   0.91420   0.25000   0.00000  Uiso   1.00
C148   C     0.25640   0.90390   0.25000   0.00000  Uiso   1.00
H129   H     0.97290   0.90440   0.25000   0.00000  Uiso   1.00
H130   H     0.99210   0.86490   0.25000   0.00000  Uiso   1.00
H131   H     0.08160   0.83770   0.25000   0.00000  Uiso   1.00
H132   H     0.25130   0.82950   0.25000   0.00000  Uiso   1.00
H133   H     0.02360   0.72530   0.25000   0.00000  Uiso   1.00
H134   H     0.05800   0.36720   0.25000   0.00000  Uiso   1.00
H135   H     0.03720   0.85030   0.25000   0.00000  Uiso   1.00
C149   C     0.97650   0.96580   0.25000   0.00000  Uiso   1.00
C150   C     0.01110   0.97590   0.25000   0.00000  Uiso   1.00
C151   C     0.29810   0.65500   0.25000   0.00000  Uiso   1.00
C152   C     0.30820   0.63070   0.25000   0.00000  Uiso   1.00
C153   C     0.03950   0.75310   0.25000   0.00000  Uiso   1.00
C154   C     0.07640   0.76330   0.25000   0.00000  Uiso   1.00
C155   C     0.08580   0.37910   0.25000   0.00000  Uiso   1.00
C156   C     0.09610   0.35250   0.25000   0.00000  Uiso   1.00
H136   H     0.90440   0.93150   0.75000   0.00000  Uiso   1.00
H137   H     0.86490   0.87280   0.75000   0.00000  Uiso   1.00
H138   H     0.83770   0.75610   0.75000   0.00000  Uiso   1.00
H139   H     0.82950   0.57820   0.75000   0.00000  Uiso   1.00
H140   H     0.72530   0.70170   0.75000   0.00000  Uiso   1.00
H141   H     0.36720   0.30920   0.75000   0.00000  Uiso   1.00
H142   H     0.85030   0.81310   0.75000   0.00000  Uiso   1.00
C157   C     0.96580   0.98930   0.75000   0.00000  Uiso   1.00
C158   C     0.97590   0.96480   0.75000   0.00000  Uiso   1.00
C159   C     0.65500   0.35690   0.75000   0.00000  Uiso   1.00
C160   C     0.63070   0.32250   0.75000   0.00000  Uiso   1.00
C161   C     0.75310   0.71360   0.75000   0.00000  Uiso   1.00
C162   C     0.76330   0.68690   0.75000   0.00000  Uiso   1.00
C163   C     0.37910   0.29330   0.75000   0.00000  Uiso   1.00
C164   C     0.35250   0.25640   0.75000   0.00000  Uiso   1.00
H143   H     0.06850   0.97290   0.75000   0.00000  Uiso   1.00
H144   H     0.12720   0.99210   0.75000   0.00000  Uiso   1.00
H145   H     0.24390   0.08160   0.75000   0.00000  Uiso   1.00
H146   H     0.42180   0.25130   0.75000   0.00000  Uiso   1.00
H147   H     0.29830   0.02360   0.75000   0.00000  Uiso   1.00
H148   H     0.69080   0.05800   0.75000   0.00000  Uiso   1.00
H149   H     0.18690   0.03720   0.75000   0.00000  Uiso   1.00
C165   C     0.01070   0.97650   0.75000   0.00000  Uiso   1.00
C166   C     0.03520   0.01110   0.75000   0.00000  Uiso   1.00
C167   C     0.64310   0.29810   0.75000   0.00000  Uiso   1.00
C168   C     0.67750   0.30820   0.75000   0.00000  Uiso   1.00
C169   C     0.28640   0.03950   0.75000   0.00000  Uiso   1.00
C170   C     0.31310   0.07640   0.75000   0.00000  Uiso   1.00
C171   C     0.70670   0.08580   0.75000   0.00000  Uiso   1.00
C172   C     0.74360   0.09610   0.75000   0.00000  Uiso   1.00
H150   H     0.02710   0.09560   0.75000   0.00000  Uiso   1.00
H151   H     0.00790   0.13510   0.75000   0.00000  Uiso   1.00
H152   H     0.91840   0.16230   0.75000   0.00000  Uiso   1.00
H153   H     0.74870   0.17050   0.75000   0.00000  Uiso   1.00
H154   H     0.97640   0.27470   0.75000   0.00000  Uiso   1.00
H155   H     0.94200   0.63280   0.75000   0.00000  Uiso   1.00
H156   H     0.96280   0.14970   0.75000   0.00000  Uiso   1.00
C173   C     0.02350   0.03420   0.75000   0.00000  Uiso   1.00
C174   C     0.98890   0.02410   0.75000   0.00000  Uiso   1.00
C175   C     0.70190   0.34500   0.75000   0.00000  Uiso   1.00
C176   C     0.69180   0.36930   0.75000   0.00000  Uiso   1.00
C177   C     0.96050   0.24690   0.75000   0.00000  Uiso   1.00
C178   C     0.92360   0.23670   0.75000   0.00000  Uiso   1.00
C179   C     0.91420   0.62090   0.75000   0.00000  Uiso   1.00
C180   C     0.90390   0.64750   0.75000   0.00000  Uiso   1.00
loop_
_geom_bond_atom_site_label_1
_geom_bond_atom_site_label_2
_geom_bond_distance
_geom_bond_site_symmetry_2
_ccdc_geom_bond_type
H1     C138    1.140   .     S
H2     C137    1.131   .     S
H3     C140    1.137   .     S
H4     C139    1.132   .     S
H5     C146    1.140   .     S
H6     C145    1.131   .     S
H7     C148    1.137   .     S
H8     C147    1.132   .     S
H9     C154    1.140   .     S
H10    C153    1.131   .     S
H11    C156    1.137   .     S
H12    C155    1.132   .     S
H13    C162    1.140   .     S
H14    C161    1.131   .     S
H15    C164    1.137   .     S
H16    C163    1.132   .     S
H17    C170    1.140   .     S
H18    C169    1.131   .     S
H19    C172    1.137   .     S
H20    C171    1.132   .     S
H21    C178    1.140   .     S
H22    C177    1.131   .     S
H23    C180    1.137   .     S
H24    C179    1.132   .     S
H25    C162    1.140   .     S
H26    C161    1.131   .     S
H27    C164    1.137   .     S
H28    C163    1.132   .     S
H29    C170    1.140   .     S
H30    C169    1.131   .     S
H31    C172    1.137   .     S
H32    C171    1.132   .     S
H33    C178    1.140   .     S
H34    C177    1.131   .     S
H35    C180    1.137   .     S
H36    C179    1.132   .     S
H37    C138    1.140   .     S
H38    C137    1.131   .     S
H39    C140    1.137   .     S
H40    C139    1.132   .     S
H41    C146    1.140   .     S
H42    C145    1.131   .     S
H43    C148    1.137   .     S
H44    C147    1.132   .     S
H45    C154    1.140   .     S
H46    C153    1.131   .     S
H47    C156    1.137   .     S
H48    C155    1.132   .     S
H49    C66     1.064   .     S
H50    C64     1.070   .     S
H51    C159    1.046   .     S
H52    C61     1.072   .     S
H53    C65     1.061   .     S
H54    C27     1.060   .     S
H55    C29     1.064   .     S
H56    C15     1.070   .     S
H57    C16     1.057   .     S
H58    C165    1.040   .     S
H59    C23     1.068   .     S
O1     C164    1.406   .     S
O1     C26     1.390   .     S
O2     C30     1.390   .     S
O2     C170    1.406   .     S
O3     C2      1.206   .     S
O4     C9      1.206   .     S
N1     C1      1.283   .     S
N1     N2      1.387   .     S
N2     H139    1.023   .     S
N2     C2      1.356   .     S
N3     C9      1.360   .     S
N3     H138    1.018   .     S
N3     N4      1.388   .     S
N4     C10     1.280   .     S
C1     H81     1.068   .     S
C1     C41     1.456   .     S
C2     C3      1.496   .     S
C3     C7      1.396   .     S
C3     C4      1.398   .     S
C4     C5      1.394   .     S
C4     O9      1.390   .     S
C5     H76     1.060   .     S
C5     C6      1.396   .     S
C6     C8      1.398   .     S
C6     C9      1.496   .     S
C7     H77     1.064   .     S
C7     C8      1.394   .     S
C8     O10     1.390   .     S
C10    H142    1.074   .     S
C10    C58     1.456   .     S
C11    C166    1.507   .     S
C11    C16     1.403   .     S
C12    H143    1.061   .     S
C13    C14     1.377   .     S
C14    C32     1.456   .     S
C14    C15     1.382   .     S
C15    C16     1.378   .     S
C17    C19     1.380   .     S
C17    H63     1.072   .     S
C17    C21     1.381   .     S
C18    C21     1.401   .     S
C18    C168    1.509   .     S
C18    C22     1.399   .     S
C19    C45     1.456   .     S
C19    C20     1.378   .     S
C20    H61     1.070   .     S
C20    C22     1.383   .     S
C21    H64     1.061   .     S
C22    H60     1.064   .     S
H62    C167    1.046   .     S
H65    C49     1.060   .     S
H66    C51     1.064   .     S
H67    C37     1.070   .     S
H68    C38     1.057   .     S
H69    C173    1.040   .     S
H70    C45     1.068   .     S
O5     C172    1.406   .     S
O5     C48     1.390   .     S
O6     C52     1.390   .     S
O6     C178    1.406   .     S
O7     C24     1.206   .     S
O8     C31     1.206   .     S
N5     N6      1.387   .     S
N5     C23     1.283   .     S
N6     H146    1.023   .     S
N6     C24     1.356   .     S
N7     C31     1.360   .     S
N7     N8      1.388   .     S
N7     H145    1.018   .     S
N8     C32     1.280   .     S
C23    C63     1.456   .     S
C24    C25     1.496   .     S
C25    C26     1.398   .     S
C25    C29     1.396   .     S
C26    C27     1.394   .     S
C27    C28     1.396   .     S
C28    C31     1.496   .     S
C28    C30     1.398   .     S
C29    C30     1.394   .     S
C32    H149    1.074   .     S
C33    C38     1.403   .     S
C33    C174    1.507   .     S
C34    H150    1.061   .     S
C35    C36     1.377   .     S
C36    C54     1.456   .     S
C36    C37     1.382   .     S
C37    C38     1.378   .     S
C39    H74     1.072   .     S
C39    C41     1.380   .     S
C39    C43     1.381   .     S
C40    C44     1.399   .     S
C40    C43     1.401   .     S
C40    C176    1.509   .     S
C41    C42     1.378   .     S
C42    H72     1.070   .     S
C42    C44     1.383   .     S
C43    H75     1.061   .     S
C44    H71     1.064   .     S
H73    C175    1.046   .     S
H78    C59     1.070   .     S
H79    C60     1.057   .     S
H80    C157    1.040   .     S
O9     C180    1.406   .     S
O10    C162    1.406   .     S
O11    C46     1.206   .     S
O12    C53     1.206   .     S
N9     C45     1.283   .     S
N9     N10     1.387   .     S
N10    C46     1.356   .     S
N10    H153    1.023   .     S
N11    H152    1.018   .     S
N11    N12     1.388   .     S
N11    C53     1.360   .     S
N12    C54     1.280   .     S
C46    C47     1.496   .     S
C47    C51     1.396   .     S
C47    C48     1.398   .     S
C48    C49     1.394   .     S
C49    C50     1.396   .     S
C50    C52     1.398   .     S
C50    C53     1.496   .     S
C51    C52     1.394   .     S
C54    H156    1.074   .     S
C55    C56     1.404   .     S
C55    C60     1.403   .     S
C55    C158    1.507   .     S
C56    H136    1.061   .     S
C56    C57     1.375   .     S
C57    H137    1.075   .     S
C57    C58     1.377   .     S
C58    C59     1.382   .     S
C59    C60     1.378   .     S
C61    C63     1.380   .     S
C61    C65     1.381   .     S
C62    C65     1.401   .     S
C62    C66     1.399   .     S
C62    C160    1.509   .     S
C63    C64     1.378   .     S
C64    C66     1.383   .     S
H82    C132    1.064   .     S
H83    C130    1.070   .     S
H84    C135    1.046   .     S
H85    C127    1.072   .     S
H86    C131    1.061   .     S
H87    C93     1.060   .     S
H88    C95     1.064   .     S
H89    C81     1.070   .     S
H90    C82     1.057   .     S
H91    C141    1.040   .     S
H92    C89     1.068   .     S
O13    C140    1.406   .     S
O13    C92     1.390   .     S
O14    C146    1.406   .     S
O14    C96     1.390   .     S
O15    C68     1.206   .     S
O16    C75     1.206   .     S
N13    C67     1.283   .     S
N13    N14     1.387   .     S
N14    H118    1.023   .     S
N14    C68     1.356   .     S
N15    C75     1.360   .     S
N15    H117    1.018   .     S
N15    N16     1.388   .     S
N16    C76     1.280   .     S
C67    H114    1.068   .     S
C67    C107    1.456   .     S
C68    C69     1.496   .     S
C69    C73     1.396   .     S
C69    C70     1.398   .     S
C70    C71     1.394   .     S
C70    O21     1.390   .     S
C71    C72     1.396   .     S
C71    H109    1.060   .     S
C72    C74     1.398   .     S
C72    C75     1.496   .     S
C73    H110    1.064   .     S
C73    C74     1.394   .     S
C74    O22     1.390   .     S
C76    C124    1.456   .     S
C76    H121    1.074   .     S
C77    C142    1.507   .     S
C77    C82     1.403   .     S
C78    H122    1.061   .     S
C79    C80     1.377   .     S
C80    C98     1.456   .     S
C80    C81     1.382   .     S
C81    C82     1.378   .     S
C83    C85     1.380   .     S
C83    H96     1.072   .     S
C83    C87     1.381   .     S
C84    C87     1.401   .     S
C84    C144    1.509   .     S
C84    C88     1.399   .     S
C85    C111    1.456   .     S
C85    C86     1.378   .     S
C86    H94     1.070   .     S
C86    C88     1.383   .     S
C87    H97     1.061   .     S
C88    H93     1.064   .     S
H95    C143    1.046   .     S
H98    C115    1.060   .     S
H99    C117    1.064   .     S
H100   C103    1.070   .     S
H101   C104    1.057   .     S
H102   C149    1.040   .     S
H103   C111    1.068   .     S
O17    C148    1.406   .     S
O17    C114    1.390   .     S
O18    C118    1.390   .     S
O18    C154    1.406   .     S
O19    C90     1.206   .     S
O20    C97     1.206   .     S
N17    N18     1.387   .     S
N17    C89     1.283   .     S
N18    H125    1.023   .     S
N18    C90     1.356   .     S
N19    C97     1.360   .     S
N19    N20     1.388   .     S
N19    H124    1.018   .     S
N20    C98     1.280   .     S
C89    C129    1.456   .     S
C90    C91     1.496   .     S
C91    C95     1.396   .     S
C91    C92     1.398   .     S
C92    C93     1.394   .     S
C93    C94     1.396   .     S
C94    C97     1.496   .     S
C94    C96     1.398   .     S
C95    C96     1.394   .     S
C98    H128    1.074   .     S
C99    C150    1.507   .     S
C99    C104    1.403   .     S
C100   H129    1.061   .     S
C101   C102    1.377   .     S
C102   C120    1.456   .     S
C102   C103    1.382   .     S
C103   C104    1.378   .     S
C105   H107    1.072   .     S
C105   C107    1.380   .     S
C105   C109    1.381   .     S
C106   C152    1.509   .     S
C106   C110    1.399   .     S
C106   C109    1.401   .     S
C107   C108    1.378   .     S
C108   C110    1.383   .     S
C108   H105    1.070   .     S
C109   H108    1.061   .     S
C110   H104    1.064   .     S
H106   C151    1.046   .     S
H111   C125    1.070   .     S
H112   C126    1.057   .     S
H113   C133    1.040   .     S
O21    C156    1.406   .     S
O22    C138    1.406   .     S
O23    C112    1.206   .     S
O24    C119    1.206   .     S
N21    C111    1.283   .     S
N21    N22     1.387   .     S
N22    C112    1.356   .     S
N22    H132    1.023   .     S
N23    N24     1.388   .     S
N23    C119    1.360   .     S
N23    H131    1.018   .     S
N24    C120    1.280   .     S
C112   C113    1.496   .     S
C113   C114    1.398   .     S
C113   C117    1.396   .     S
C114   C115    1.394   .     S
C115   C116    1.396   .     S
C116   C118    1.398   .     S
C116   C119    1.496   .     S
C117   C118    1.394   .     S
C120   H135    1.074   .     S
C121   C122    1.404   .     S
C121   C126    1.403   .     S
C121   C134    1.507   .     S
C122   H115    1.061   .     S
C122   C123    1.375   .     S
C123   H116    1.075   .     S
C123   C124    1.377   .     S
C124   C125    1.382   .     S
C125   C126    1.378   .     S
C127   C131    1.381   .     S
C127   C129    1.380   .     S
C128   C136    1.509   .     S
C128   C131    1.401   .     S
C128   C132    1.399   .     S
C129   C130    1.378   .     S
C130   C132    1.383   .     S
H119   C137    1.095   .     S
H120   C139    1.095   .     S
C133   C134    1.397   .     S
C135   C136    1.389   .     S
C135   C152    1.470   .     S
C136   C143    1.470   .     S
C137   C138    1.496   .     S
C139   C140    1.495   .     S
H126   C145    1.095   .     S
H127   C147    1.095   .     S
C142   C149    1.391   .     S
C143   C144    1.389   .     S
C144   C151    1.470   .     S
C145   C146    1.496   .     S
C147   C148    1.495   .     S
H133   C153    1.095   .     S
H134   C155    1.095   .     S
C151   C152    1.389   .     S
C153   C154    1.496   .     S
C155   C156    1.495   .     S
H140   C161    1.095   .     S
H141   C163    1.095   .     S
C157   C158    1.397   .     S
C159   C160    1.389   .     S
C159   C176    1.470   .     S
C160   C167    1.470   .     S
C161   C162    1.496   .     S
C163   C164    1.495   .     S
H147   C169    1.095   .     S
H148   C171    1.095   .     S
C166   C173    1.391   .     S
C167   C168    1.389   .     S
C168   C175    1.470   .     S
C169   C170    1.496   .     S
C171   C172    1.495   .     S
H154   C177    1.095   .     S
H155   C179    1.095   .     S
C175   C176    1.389   .     S
C177   C178    1.496   .     S
C179   C180    1.495   .     S
