data_COF-366
_audit_creation_date              2016-12-13
_audit_creation_method            'Materials Studio'
_symmetry_space_group_name_H-M    'P1'
_symmetry_Int_Tables_number       1
_symmetry_cell_setting            triclinic
loop_
_symmetry_equiv_pos_as_xyz
  x,y,z
_cell_length_a                    25.4170
_cell_length_b                    12.3770
_cell_length_c                    25.4170
_cell_angle_alpha                 90.0000
_cell_angle_beta                  90.0000
_cell_angle_gamma                 90.0000
loop_
_atom_site_label
_atom_site_type_symbol
_atom_site_fract_x
_atom_site_fract_y
_atom_site_fract_z
_atom_site_U_iso_or_equiv
_atom_site_adp_type
_atom_site_occupancy
C1     C     0.00800   0.23600   0.30600   0.00000  Uiso   1.00
C2     C     0.03400   0.32300   0.28300   0.00000  Uiso   1.00
C3     C     0.03300   0.33900   0.22800   0.00000  Uiso   1.00
C4     C     0.04300   0.14800   0.46600   0.00000  Uiso   1.00
C5     C     0.00900   0.26500   0.19500   0.00000  Uiso   1.00
C6     C     0.00700   0.28200   0.13700   0.00000  Uiso   1.00
N1     N     0.01100   0.22400   0.35900   0.00000  Uiso   1.00
C7     C     0.98300   0.16900   0.21800   0.00000  Uiso   1.00
C8     C     0.98000   0.15700   0.27200   0.00000  Uiso   1.00
C9     C     0.98300   0.15400   0.38900   0.00000  Uiso   1.00
C10    C     0.94900   0.14600   0.48000   0.00000  Uiso   1.00
C11    C     0.99200   0.14800   0.44500   0.00000  Uiso   1.00
N2     N     0.94500   0.28700   0.05900   0.00000  Uiso   1.00
C12    C     0.95500   0.28800   0.11200   0.00000  Uiso   1.00
C13    C     0.90800   0.29000   0.14000   0.00000  Uiso   1.00
C14    C     0.89200   0.28600   0.05500   0.00000  Uiso   1.00
C15    C     0.86800   0.28600   0.10400   0.00000  Uiso   1.00
H1     H     0.05446   0.38106   0.30748   0.00000  Uiso   1.00
H2     H     0.05215   0.40924   0.21168   0.00000  Uiso   1.00
H3     H     0.07681   0.14793   0.44006   0.00000  Uiso   1.00
H4     H     0.96414   0.11013   0.19275   0.00000  Uiso   1.00
H5     H     0.95845   0.09036   0.28877   0.00000  Uiso   1.00
H6     H     0.94036   0.16185   0.37975   0.00000  Uiso   1.00
H7     H     0.90901   0.14546   0.46527   0.00000  Uiso   1.00
H8     H     0.90285   0.29183   0.18223   0.00000  Uiso   1.00
H9     H     0.82672   0.28198   0.11385   0.00000  Uiso   1.00
H10    H     0.97057   0.71924   0.97193   0.00000  Uiso   1.00
C16    C     0.30600   0.23600   0.99200   0.00000  Uiso   1.00
C17    C     0.28300   0.32300   0.96600   0.00000  Uiso   1.00
C18    C     0.22800   0.33900   0.96700   0.00000  Uiso   1.00
C19    C     0.46600   0.14800   0.95700   0.00000  Uiso   1.00
C20    C     0.19500   0.26500   0.99100   0.00000  Uiso   1.00
C21    C     0.13700   0.28200   0.99300   0.00000  Uiso   1.00
N3     N     0.35900   0.22400   0.98900   0.00000  Uiso   1.00
C22    C     0.21800   0.16900   0.01700   0.00000  Uiso   1.00
C23    C     0.27200   0.15700   0.02000   0.00000  Uiso   1.00
C24    C     0.38900   0.15400   0.01700   0.00000  Uiso   1.00
C25    C     0.48000   0.14600   0.05100   0.00000  Uiso   1.00
C26    C     0.44500   0.14800   0.00800   0.00000  Uiso   1.00
N4     N     0.05900   0.28700   0.05500   0.00000  Uiso   1.00
C27    C     0.11200   0.28800   0.04500   0.00000  Uiso   1.00
C28    C     0.14000   0.29000   0.09200   0.00000  Uiso   1.00
C29    C     0.05500   0.28600   0.10800   0.00000  Uiso   1.00
C30    C     0.10400   0.28600   0.13200   0.00000  Uiso   1.00
H11    H     0.30748   0.38106   0.94554   0.00000  Uiso   1.00
H12    H     0.21168   0.40924   0.94785   0.00000  Uiso   1.00
H13    H     0.44006   0.14793   0.92319   0.00000  Uiso   1.00
H14    H     0.19275   0.11013   0.03586   0.00000  Uiso   1.00
H15    H     0.28877   0.09036   0.04155   0.00000  Uiso   1.00
H16    H     0.37975   0.16185   0.05964   0.00000  Uiso   1.00
H17    H     0.46527   0.14546   0.09099   0.00000  Uiso   1.00
H18    H     0.18223   0.29183   0.09715   0.00000  Uiso   1.00
H19    H     0.11385   0.28198   0.17328   0.00000  Uiso   1.00
C31    C     0.99200   0.76400   0.69400   0.00000  Uiso   1.00
C32    C     0.96600   0.67700   0.71700   0.00000  Uiso   1.00
C33    C     0.96700   0.66100   0.77200   0.00000  Uiso   1.00
C34    C     0.95700   0.85200   0.53400   0.00000  Uiso   1.00
C35    C     0.99100   0.73500   0.80500   0.00000  Uiso   1.00
C36    C     0.99300   0.71800   0.86300   0.00000  Uiso   1.00
N5     N     0.98900   0.77600   0.64100   0.00000  Uiso   1.00
C37    C     0.01700   0.83100   0.78200   0.00000  Uiso   1.00
C38    C     0.02000   0.84300   0.72800   0.00000  Uiso   1.00
C39    C     0.01700   0.84600   0.61100   0.00000  Uiso   1.00
C40    C     0.05100   0.85400   0.52000   0.00000  Uiso   1.00
C41    C     0.00800   0.85200   0.55500   0.00000  Uiso   1.00
N6     N     0.05500   0.71300   0.94100   0.00000  Uiso   1.00
C42    C     0.04500   0.71200   0.88800   0.00000  Uiso   1.00
C43    C     0.09200   0.71000   0.86000   0.00000  Uiso   1.00
C44    C     0.10800   0.71400   0.94500   0.00000  Uiso   1.00
C45    C     0.13200   0.71400   0.89600   0.00000  Uiso   1.00
H20    H     0.94554   0.61894   0.69252   0.00000  Uiso   1.00
H21    H     0.94785   0.59076   0.78832   0.00000  Uiso   1.00
H22    H     0.92319   0.85207   0.55994   0.00000  Uiso   1.00
H23    H     0.03586   0.88987   0.80725   0.00000  Uiso   1.00
H24    H     0.04155   0.90964   0.71123   0.00000  Uiso   1.00
H25    H     0.05964   0.83815   0.62025   0.00000  Uiso   1.00
H26    H     0.09099   0.85454   0.53473   0.00000  Uiso   1.00
H27    H     0.09715   0.70817   0.81777   0.00000  Uiso   1.00
H28    H     0.17328   0.71802   0.88615   0.00000  Uiso   1.00
H29    H     0.02943   0.28076   0.02807   0.00000  Uiso   1.00
C46    C     0.69400   0.76400   0.00800   0.00000  Uiso   1.00
C47    C     0.71700   0.67700   0.03400   0.00000  Uiso   1.00
C48    C     0.77200   0.66100   0.03300   0.00000  Uiso   1.00
C49    C     0.53400   0.85200   0.04300   0.00000  Uiso   1.00
C50    C     0.80500   0.73500   0.00900   0.00000  Uiso   1.00
C51    C     0.86300   0.71800   0.00700   0.00000  Uiso   1.00
N7     N     0.64100   0.77600   0.01100   0.00000  Uiso   1.00
C52    C     0.78200   0.83100   0.98300   0.00000  Uiso   1.00
C53    C     0.72800   0.84300   0.98000   0.00000  Uiso   1.00
C54    C     0.61100   0.84600   0.98300   0.00000  Uiso   1.00
C55    C     0.52000   0.85400   0.94900   0.00000  Uiso   1.00
C56    C     0.55500   0.85200   0.99200   0.00000  Uiso   1.00
N8     N     0.94100   0.71300   0.94500   0.00000  Uiso   1.00
C57    C     0.88800   0.71200   0.95500   0.00000  Uiso   1.00
C58    C     0.86000   0.71000   0.90800   0.00000  Uiso   1.00
C59    C     0.94500   0.71400   0.89200   0.00000  Uiso   1.00
C60    C     0.89600   0.71400   0.86800   0.00000  Uiso   1.00
H30    H     0.69252   0.61894   0.05446   0.00000  Uiso   1.00
H31    H     0.78832   0.59076   0.05215   0.00000  Uiso   1.00
H32    H     0.55994   0.85207   0.07681   0.00000  Uiso   1.00
H33    H     0.80725   0.88987   0.96414   0.00000  Uiso   1.00
H34    H     0.71123   0.90964   0.95845   0.00000  Uiso   1.00
H35    H     0.62025   0.83815   0.94036   0.00000  Uiso   1.00
H36    H     0.53473   0.85454   0.90901   0.00000  Uiso   1.00
H37    H     0.81777   0.70817   0.90285   0.00000  Uiso   1.00
H38    H     0.88615   0.71802   0.82672   0.00000  Uiso   1.00
C61    C     0.99200   0.23600   0.69400   0.00000  Uiso   1.00
C62    C     0.96600   0.32300   0.71700   0.00000  Uiso   1.00
C63    C     0.96700   0.33900   0.77200   0.00000  Uiso   1.00
C64    C     0.95700   0.14800   0.53400   0.00000  Uiso   1.00
C65    C     0.99100   0.26500   0.80500   0.00000  Uiso   1.00
C66    C     0.99300   0.28200   0.86300   0.00000  Uiso   1.00
N9     N     0.98900   0.22400   0.64100   0.00000  Uiso   1.00
C67    C     0.01700   0.16900   0.78200   0.00000  Uiso   1.00
C68    C     0.02000   0.15700   0.72800   0.00000  Uiso   1.00
C69    C     0.01700   0.15400   0.61100   0.00000  Uiso   1.00
C70    C     0.05100   0.14600   0.52000   0.00000  Uiso   1.00
C71    C     0.00800   0.14800   0.55500   0.00000  Uiso   1.00
N10    N     0.05500   0.28700   0.94100   0.00000  Uiso   1.00
C72    C     0.04500   0.28800   0.88800   0.00000  Uiso   1.00
C73    C     0.09200   0.29000   0.86000   0.00000  Uiso   1.00
C74    C     0.10800   0.28600   0.94500   0.00000  Uiso   1.00
C75    C     0.13200   0.28600   0.89600   0.00000  Uiso   1.00
H39    H     0.94554   0.38106   0.69252   0.00000  Uiso   1.00
H40    H     0.94785   0.40924   0.78832   0.00000  Uiso   1.00
H41    H     0.92319   0.14793   0.55994   0.00000  Uiso   1.00
H42    H     0.03586   0.11013   0.80725   0.00000  Uiso   1.00
H43    H     0.04155   0.09036   0.71123   0.00000  Uiso   1.00
H44    H     0.05964   0.16185   0.62025   0.00000  Uiso   1.00
H45    H     0.09099   0.14546   0.53473   0.00000  Uiso   1.00
H46    H     0.09715   0.29183   0.81777   0.00000  Uiso   1.00
H47    H     0.17328   0.28198   0.88615   0.00000  Uiso   1.00
H48    H     0.02943   0.71924   0.02807   0.00000  Uiso   1.00
C76    C     0.69400   0.23600   0.00800   0.00000  Uiso   1.00
C77    C     0.71700   0.32300   0.03400   0.00000  Uiso   1.00
C78    C     0.77200   0.33900   0.03300   0.00000  Uiso   1.00
C79    C     0.53400   0.14800   0.04300   0.00000  Uiso   1.00
C80    C     0.80500   0.26500   0.00900   0.00000  Uiso   1.00
C81    C     0.86300   0.28200   0.00700   0.00000  Uiso   1.00
N11    N     0.64100   0.22400   0.01100   0.00000  Uiso   1.00
C82    C     0.78200   0.16900   0.98300   0.00000  Uiso   1.00
C83    C     0.72800   0.15700   0.98000   0.00000  Uiso   1.00
C84    C     0.61100   0.15400   0.98300   0.00000  Uiso   1.00
C85    C     0.52000   0.14600   0.94900   0.00000  Uiso   1.00
C86    C     0.55500   0.14800   0.99200   0.00000  Uiso   1.00
N12    N     0.94100   0.28700   0.94500   0.00000  Uiso   1.00
C87    C     0.88800   0.28800   0.95500   0.00000  Uiso   1.00
C88    C     0.86000   0.29000   0.90800   0.00000  Uiso   1.00
C89    C     0.94500   0.28600   0.89200   0.00000  Uiso   1.00
C90    C     0.89600   0.28600   0.86800   0.00000  Uiso   1.00
H49    H     0.69252   0.38106   0.05446   0.00000  Uiso   1.00
H50    H     0.78832   0.40924   0.05215   0.00000  Uiso   1.00
H51    H     0.55994   0.14793   0.07681   0.00000  Uiso   1.00
H52    H     0.80725   0.11013   0.96414   0.00000  Uiso   1.00
H53    H     0.71123   0.09036   0.95845   0.00000  Uiso   1.00
H54    H     0.62025   0.16185   0.94036   0.00000  Uiso   1.00
H55    H     0.53473   0.14546   0.90901   0.00000  Uiso   1.00
H56    H     0.81777   0.29183   0.90285   0.00000  Uiso   1.00
H57    H     0.88615   0.28198   0.82672   0.00000  Uiso   1.00
C91    C     0.00800   0.76400   0.30600   0.00000  Uiso   1.00
C92    C     0.03400   0.67700   0.28300   0.00000  Uiso   1.00
C93    C     0.03300   0.66100   0.22800   0.00000  Uiso   1.00
C94    C     0.04300   0.85200   0.46600   0.00000  Uiso   1.00
C95    C     0.00900   0.73500   0.19500   0.00000  Uiso   1.00
C96    C     0.00700   0.71800   0.13700   0.00000  Uiso   1.00
N13    N     0.01100   0.77600   0.35900   0.00000  Uiso   1.00
C97    C     0.98300   0.83100   0.21800   0.00000  Uiso   1.00
C98    C     0.98000   0.84300   0.27200   0.00000  Uiso   1.00
C99    C     0.98300   0.84600   0.38900   0.00000  Uiso   1.00
C100   C     0.94900   0.85400   0.48000   0.00000  Uiso   1.00
C101   C     0.99200   0.85200   0.44500   0.00000  Uiso   1.00
N14    N     0.94500   0.71300   0.05900   0.00000  Uiso   1.00
C102   C     0.95500   0.71200   0.11200   0.00000  Uiso   1.00
C103   C     0.90800   0.71000   0.14000   0.00000  Uiso   1.00
C104   C     0.89200   0.71400   0.05500   0.00000  Uiso   1.00
C105   C     0.86800   0.71400   0.10400   0.00000  Uiso   1.00
H58    H     0.05446   0.61894   0.30748   0.00000  Uiso   1.00
H59    H     0.05215   0.59076   0.21168   0.00000  Uiso   1.00
H60    H     0.07681   0.85207   0.44006   0.00000  Uiso   1.00
H61    H     0.96414   0.88987   0.19275   0.00000  Uiso   1.00
H62    H     0.95845   0.90964   0.28877   0.00000  Uiso   1.00
H63    H     0.94036   0.83815   0.37975   0.00000  Uiso   1.00
H64    H     0.90901   0.85454   0.46527   0.00000  Uiso   1.00
H65    H     0.90285   0.70817   0.18223   0.00000  Uiso   1.00
H66    H     0.82672   0.71802   0.11385   0.00000  Uiso   1.00
H67    H     0.97057   0.28076   0.97193   0.00000  Uiso   1.00
C106   C     0.30600   0.76400   0.99200   0.00000  Uiso   1.00
C107   C     0.28300   0.67700   0.96600   0.00000  Uiso   1.00
C108   C     0.22800   0.66100   0.96700   0.00000  Uiso   1.00
C109   C     0.46600   0.85200   0.95700   0.00000  Uiso   1.00
C110   C     0.19500   0.73500   0.99100   0.00000  Uiso   1.00
C111   C     0.13700   0.71800   0.99300   0.00000  Uiso   1.00
N15    N     0.35900   0.77600   0.98900   0.00000  Uiso   1.00
C112   C     0.21800   0.83100   0.01700   0.00000  Uiso   1.00
C113   C     0.27200   0.84300   0.02000   0.00000  Uiso   1.00
C114   C     0.38900   0.84600   0.01700   0.00000  Uiso   1.00
C115   C     0.48000   0.85400   0.05100   0.00000  Uiso   1.00
C116   C     0.44500   0.85200   0.00800   0.00000  Uiso   1.00
N16    N     0.05900   0.71300   0.05500   0.00000  Uiso   1.00
C117   C     0.11200   0.71200   0.04500   0.00000  Uiso   1.00
C118   C     0.14000   0.71000   0.09200   0.00000  Uiso   1.00
C119   C     0.05500   0.71400   0.10800   0.00000  Uiso   1.00
C120   C     0.10400   0.71400   0.13200   0.00000  Uiso   1.00
H68    H     0.30748   0.61894   0.94554   0.00000  Uiso   1.00
H69    H     0.21168   0.59076   0.94785   0.00000  Uiso   1.00
H70    H     0.44006   0.85207   0.92319   0.00000  Uiso   1.00
H71    H     0.19275   0.88987   0.03586   0.00000  Uiso   1.00
H72    H     0.28877   0.90964   0.04155   0.00000  Uiso   1.00
H73    H     0.37975   0.83815   0.05964   0.00000  Uiso   1.00
H74    H     0.46527   0.85454   0.09099   0.00000  Uiso   1.00
H75    H     0.18223   0.70817   0.09715   0.00000  Uiso   1.00
H76    H     0.11385   0.71802   0.17328   0.00000  Uiso   1.00
loop_
_geom_bond_atom_site_label_1
_geom_bond_atom_site_label_2
_geom_bond_distance
_geom_bond_site_symmetry_2
_ccdc_geom_bond_type
C1     C2      1.392   .     S
C1     N1      1.357   .     S
C2     H1      1.083   .     S
C2     C3      1.412   .     S
C3     H2      1.079   .     S
C3     C5      1.384   .     S
C4     H3      1.083   .     S
C4     C70     1.388   .     S
C5     C6      1.490   .     S
C6     C29     1.426   .     S
C7     C8      1.383   .     S
C7     H4      1.083   .     S
C8     H5      1.078   .     S
C9     H6      1.113   .     S
C9     C11     1.444   .     S
C10    H7      1.083   .     S
C10    C11     1.409   .     S
C10    C64     1.388   .     S
N2     C14     1.351   .     S
N2     C12     1.371   .     S
C12    C13     1.391   .     S
C13    H8      1.081   .     S
C13    C15     1.369   .     S
C14    C81     1.426   .     S
C14    C15     1.387   .     S
C15    H9      1.080   .     S
H10    N8      1.020   .     S
C16    N3      1.357   .     S
C16    C17     1.392   .     S
C17    H11     1.083   .     S
C17    C18     1.412   .     S
C18    H12     1.079   .     S
C18    C20     1.384   .     S
C19    H13     1.083   .     S
C19    C85     1.388   .     S
C20    C21     1.490   .     S
C21    C74     1.426   .     S
C22    C23     1.383   .     S
C22    H14     1.083   .     S
C23    H15     1.078   .     S
C24    H16     1.113   .     S
C24    C26     1.444   .     S
C25    C26     1.409   .     S
C25    C79     1.388   .     S
C25    H17     1.083   .     S
N4     C27     1.371   .     S
N4     H29     1.020   .     S
N4     C29     1.351   .     S
C27    C28     1.391   .     S
C28    H18     1.081   .     S
C28    C30     1.369   .     S
C29    C30     1.387   .     S
C30    H19     1.080   .     S
C31    N5      1.357   .     S
C31    C32     1.392   .     S
C32    H20     1.083   .     S
C32    C33     1.412   .     S
C33    H21     1.079   .     S
C33    C35     1.384   .     S
C34    C100    1.388   .     S
C34    H22     1.083   .     S
C35    C36     1.490   .     S
C36    C59     1.426   .     S
C37    H23     1.083   .     S
C37    C38     1.383   .     S
C38    H24     1.078   .     S
C39    H25     1.113   .     S
C39    C41     1.444   .     S
C40    C41     1.409   .     S
C40    H26     1.083   .     S
C40    C94     1.388   .     S
N6     C44     1.351   .     S
N6     C42     1.371   .     S
C42    C43     1.391   .     S
C43    C45     1.369   .     S
C43    H27     1.081   .     S
C44    C45     1.387   .     S
C44    C111    1.426   .     S
C45    H28     1.080   .     S
C46    N7      1.357   .     S
C46    C47     1.392   .     S
C47    H30     1.083   .     S
C47    C48     1.412   .     S
C48    H31     1.079   .     S
C48    C50     1.384   .     S
C49    C115    1.388   .     S
C49    H32     1.083   .     S
C50    C51     1.490   .     S
C51    C104    1.426   .     S
C52    C53     1.383   .     S
C52    H33     1.083   .     S
C53    H34     1.078   .     S
C54    C56     1.444   .     S
C54    H35     1.113   .     S
C55    H36     1.083   .     S
C55    C109    1.388   .     S
C55    C56     1.409   .     S
N8     C57     1.371   .     S
N8     C59     1.351   .     S
C57    C58     1.391   .     S
C58    C60     1.369   .     S
C58    H37     1.081   .     S
C59    C60     1.387   .     S
C60    H38     1.080   .     S
C61    N9      1.357   .     S
C61    C62     1.392   .     S
C62    H39     1.083   .     S
C62    C63     1.412   .     S
C63    H40     1.079   .     S
C63    C65     1.384   .     S
C64    H41     1.083   .     S
C65    C66     1.490   .     S
C66    C89     1.426   .     S
C67    H42     1.083   .     S
C67    C68     1.383   .     S
C68    H43     1.078   .     S
C69    H44     1.113   .     S
C69    C71     1.444   .     S
C70    C71     1.409   .     S
C70    H45     1.083   .     S
N10    C74     1.351   .     S
N10    C72     1.371   .     S
C72    C73     1.391   .     S
C73    C75     1.369   .     S
C73    H46     1.081   .     S
C74    C75     1.387   .     S
C75    H47     1.080   .     S
H48    N16     1.020   .     S
C76    N11     1.357   .     S
C76    C77     1.392   .     S
C77    H49     1.083   .     S
C77    C78     1.412   .     S
C78    H50     1.079   .     S
C78    C80     1.384   .     S
C79    H51     1.083   .     S
C80    C81     1.490   .     S
C82    C83     1.383   .     S
C82    H52     1.083   .     S
C83    H53     1.078   .     S
C84    C86     1.444   .     S
C84    H54     1.113   .     S
C85    H55     1.083   .     S
C85    C86     1.409   .     S
N12    C87     1.371   .     S
N12    H67     1.020   .     S
N12    C89     1.351   .     S
C87    C88     1.391   .     S
C88    H56     1.081   .     S
C88    C90     1.369   .     S
C89    C90     1.387   .     S
C90    H57     1.080   .     S
C91    C92     1.392   .     S
C91    N13     1.357   .     S
C92    H58     1.083   .     S
C92    C93     1.412   .     S
C93    H59     1.079   .     S
C93    C95     1.384   .     S
C94    H60     1.083   .     S
C95    C96     1.490   .     S
C96    C119    1.426   .     S
C97    C98     1.383   .     S
C97    H61     1.083   .     S
C98    H62     1.078   .     S
C99    H63     1.113   .     S
C99    C101    1.444   .     S
C100   H64     1.083   .     S
C100   C101    1.409   .     S
N14    C104    1.351   .     S
N14    C102    1.371   .     S
C102   C103    1.391   .     S
C103   H65     1.081   .     S
C103   C105    1.369   .     S
C104   C105    1.387   .     S
C105   H66     1.080   .     S
C106   N15     1.357   .     S
C106   C107    1.392   .     S
C107   H68     1.083   .     S
C107   C108    1.412   .     S
C108   H69     1.079   .     S
C108   C110    1.384   .     S
C109   H70     1.083   .     S
C110   C111    1.490   .     S
C112   C113    1.383   .     S
C112   H71     1.083   .     S
C113   H72     1.078   .     S
C114   H73     1.113   .     S
C114   C116    1.444   .     S
C115   C116    1.409   .     S
C115   H74     1.083   .     S
N16    C117    1.371   .     S
N16    C119    1.351   .     S
C117   C118    1.391   .     S
C118   H75     1.081   .     S
C118   C120    1.369   .     S
C119   C120    1.387   .     S
C120   H76     1.080   .     S
