data_COF-108
_audit_creation_date              2016-12-13
_audit_creation_method            'Materials Studio'
_symmetry_space_group_name_H-M    'P1'
_symmetry_Int_Tables_number       1
_symmetry_cell_setting            triclinic
loop_
_symmetry_equiv_pos_as_xyz
  x,y,z
_cell_length_a                    28.4010
_cell_length_b                    28.4010
_cell_length_c                    28.4010
_cell_angle_alpha                 90.0000
_cell_angle_beta                  90.0000
_cell_angle_gamma                 90.0000
loop_
_atom_site_label
_atom_site_type_symbol
_atom_site_fract_x
_atom_site_fract_y
_atom_site_fract_z
_atom_site_U_iso_or_equiv
_atom_site_adp_type
_atom_site_occupancy
C1     C     0.58884   0.90473   0.03528   0.00000  Uiso   1.00
C2     C     0.55309   0.92861   0.01135   0.00000  Uiso   1.00
C3     C     0.77691   0.81243   0.15180   0.00000  Uiso   1.00
C4     C     0.70726   0.84893   0.11722   0.00000  Uiso   1.00
H1     H     0.73800   0.78820   0.08839   0.00000  Uiso   1.00
O1     O     0.67143   0.85456   0.08457   0.00000  Uiso   1.00
H2     H     0.54196   0.91468   0.97775   0.00000  Uiso   1.00
C5     C     0.74101   0.81373   0.11663   0.00000  Uiso   1.00
H3     H     0.39682   0.02023   0.12961   0.00000  Uiso   1.00
C6     C     0.41116   0.09527   0.03528   0.00000  Uiso   1.00
C7     C     0.44691   0.07139   0.01135   0.00000  Uiso   1.00
C8     C     0.22309   0.18757   0.15180   0.00000  Uiso   1.00
C9     C     0.29274   0.15107   0.11722   0.00000  Uiso   1.00
H4     H     0.26200   0.21180   0.08839   0.00000  Uiso   1.00
O2     O     0.32857   0.14544   0.08457   0.00000  Uiso   1.00
H5     H     0.45804   0.08532   0.97775   0.00000  Uiso   1.00
C10    C     0.25899   0.18627   0.11663   0.00000  Uiso   1.00
H6     H     0.60318   0.97977   0.12961   0.00000  Uiso   1.00
C11    C     0.41116   0.90473   0.96472   0.00000  Uiso   1.00
C12    C     0.44691   0.92861   0.98865   0.00000  Uiso   1.00
C13    C     0.22309   0.81243   0.84820   0.00000  Uiso   1.00
C14    C     0.29274   0.84893   0.88278   0.00000  Uiso   1.00
H7     H     0.26200   0.78820   0.91161   0.00000  Uiso   1.00
O3     O     0.32857   0.85456   0.91543   0.00000  Uiso   1.00
H8     H     0.45804   0.91468   0.02225   0.00000  Uiso   1.00
C15    C     0.25899   0.81373   0.88337   0.00000  Uiso   1.00
H9     H     0.60318   0.02023   0.87039   0.00000  Uiso   1.00
C16    C     0.58884   0.09527   0.96472   0.00000  Uiso   1.00
C17    C     0.55309   0.07139   0.98865   0.00000  Uiso   1.00
C18    C     0.77691   0.18757   0.84820   0.00000  Uiso   1.00
C19    C     0.70726   0.15107   0.88278   0.00000  Uiso   1.00
H10    H     0.73800   0.21180   0.91161   0.00000  Uiso   1.00
O4     O     0.67143   0.14544   0.91543   0.00000  Uiso   1.00
H11    H     0.54196   0.08532   0.02225   0.00000  Uiso   1.00
C20    C     0.74101   0.18627   0.88337   0.00000  Uiso   1.00
H12    H     0.39682   0.97977   0.87039   0.00000  Uiso   1.00
C21    C     0.03528   0.58884   0.90473   0.00000  Uiso   1.00
C22    C     0.01135   0.55309   0.92861   0.00000  Uiso   1.00
C23    C     0.15180   0.77691   0.81243   0.00000  Uiso   1.00
C24    C     0.11722   0.70726   0.84893   0.00000  Uiso   1.00
H13    H     0.08839   0.73800   0.78820   0.00000  Uiso   1.00
O5     O     0.08457   0.67143   0.85456   0.00000  Uiso   1.00
H14    H     0.97775   0.54196   0.91468   0.00000  Uiso   1.00
C25    C     0.11663   0.74101   0.81373   0.00000  Uiso   1.00
H15    H     0.12961   0.39682   0.02023   0.00000  Uiso   1.00
C26    C     0.03528   0.41116   0.09527   0.00000  Uiso   1.00
C27    C     0.01135   0.44691   0.07139   0.00000  Uiso   1.00
C28    C     0.15180   0.22309   0.18757   0.00000  Uiso   1.00
C29    C     0.11722   0.29274   0.15107   0.00000  Uiso   1.00
H16    H     0.08839   0.26200   0.21180   0.00000  Uiso   1.00
O6     O     0.08457   0.32857   0.14544   0.00000  Uiso   1.00
H17    H     0.97775   0.45804   0.08532   0.00000  Uiso   1.00
C30    C     0.11663   0.25899   0.18627   0.00000  Uiso   1.00
H18    H     0.12961   0.60318   0.97977   0.00000  Uiso   1.00
C31    C     0.96472   0.41116   0.90473   0.00000  Uiso   1.00
C32    C     0.98865   0.44691   0.92861   0.00000  Uiso   1.00
C33    C     0.84820   0.22309   0.81243   0.00000  Uiso   1.00
C34    C     0.88278   0.29274   0.84893   0.00000  Uiso   1.00
H19    H     0.91161   0.26200   0.78820   0.00000  Uiso   1.00
O7     O     0.91543   0.32857   0.85456   0.00000  Uiso   1.00
H20    H     0.02225   0.45804   0.91468   0.00000  Uiso   1.00
C35    C     0.88337   0.25899   0.81373   0.00000  Uiso   1.00
H21    H     0.87039   0.60318   0.02023   0.00000  Uiso   1.00
C36    C     0.96472   0.58884   0.09527   0.00000  Uiso   1.00
C37    C     0.98865   0.55309   0.07139   0.00000  Uiso   1.00
C38    C     0.84820   0.77691   0.18757   0.00000  Uiso   1.00
C39    C     0.88278   0.70726   0.15107   0.00000  Uiso   1.00
H22    H     0.91161   0.73800   0.21180   0.00000  Uiso   1.00
O8     O     0.91543   0.67143   0.14544   0.00000  Uiso   1.00
H23    H     0.02225   0.54196   0.08532   0.00000  Uiso   1.00
C40    C     0.88337   0.74101   0.18627   0.00000  Uiso   1.00
H24    H     0.87039   0.39682   0.97977   0.00000  Uiso   1.00
C41    C     0.90473   0.03528   0.58884   0.00000  Uiso   1.00
C42    C     0.92861   0.01135   0.55309   0.00000  Uiso   1.00
C43    C     0.81243   0.15180   0.77691   0.00000  Uiso   1.00
C44    C     0.84893   0.11722   0.70726   0.00000  Uiso   1.00
H25    H     0.78820   0.08839   0.73800   0.00000  Uiso   1.00
O9     O     0.85456   0.08457   0.67143   0.00000  Uiso   1.00
H26    H     0.91468   0.97775   0.54196   0.00000  Uiso   1.00
C45    C     0.81373   0.11663   0.74101   0.00000  Uiso   1.00
H27    H     0.02023   0.12961   0.39682   0.00000  Uiso   1.00
C46    C     0.09527   0.03528   0.41116   0.00000  Uiso   1.00
C47    C     0.07139   0.01135   0.44691   0.00000  Uiso   1.00
C48    C     0.18757   0.15180   0.22309   0.00000  Uiso   1.00
C49    C     0.15107   0.11722   0.29274   0.00000  Uiso   1.00
H28    H     0.21180   0.08839   0.26200   0.00000  Uiso   1.00
O10    O     0.14544   0.08457   0.32857   0.00000  Uiso   1.00
H29    H     0.08532   0.97775   0.45804   0.00000  Uiso   1.00
C50    C     0.18627   0.11663   0.25899   0.00000  Uiso   1.00
H30    H     0.97977   0.12961   0.60318   0.00000  Uiso   1.00
C51    C     0.90473   0.96472   0.41116   0.00000  Uiso   1.00
C52    C     0.92861   0.98865   0.44691   0.00000  Uiso   1.00
C53    C     0.81243   0.84820   0.22309   0.00000  Uiso   1.00
C54    C     0.84893   0.88278   0.29274   0.00000  Uiso   1.00
H31    H     0.78820   0.91161   0.26200   0.00000  Uiso   1.00
O11    O     0.85456   0.91543   0.32857   0.00000  Uiso   1.00
H32    H     0.91468   0.02225   0.45804   0.00000  Uiso   1.00
C55    C     0.81373   0.88337   0.25899   0.00000  Uiso   1.00
H33    H     0.02023   0.87039   0.60318   0.00000  Uiso   1.00
C56    C     0.09527   0.96472   0.58884   0.00000  Uiso   1.00
C57    C     0.07139   0.98865   0.55309   0.00000  Uiso   1.00
C58    C     0.18757   0.84820   0.77691   0.00000  Uiso   1.00
C59    C     0.15107   0.88278   0.70726   0.00000  Uiso   1.00
H34    H     0.21180   0.91161   0.73800   0.00000  Uiso   1.00
O12    O     0.14544   0.91543   0.67143   0.00000  Uiso   1.00
H35    H     0.08532   0.02225   0.54196   0.00000  Uiso   1.00
C60    C     0.18627   0.88337   0.74101   0.00000  Uiso   1.00
H36    H     0.97977   0.87039   0.39682   0.00000  Uiso   1.00
C61    C     0.90473   0.58884   0.03528   0.00000  Uiso   1.00
C62    C     0.92861   0.55309   0.01135   0.00000  Uiso   1.00
C63    C     0.81243   0.77691   0.15180   0.00000  Uiso   1.00
C64    C     0.84893   0.70726   0.11722   0.00000  Uiso   1.00
H37    H     0.78820   0.73800   0.08839   0.00000  Uiso   1.00
O13    O     0.85456   0.67143   0.08457   0.00000  Uiso   1.00
H38    H     0.91468   0.54196   0.97775   0.00000  Uiso   1.00
C65    C     0.81373   0.74101   0.11663   0.00000  Uiso   1.00
H39    H     0.02023   0.39682   0.12961   0.00000  Uiso   1.00
C66    C     0.09527   0.41116   0.03528   0.00000  Uiso   1.00
C67    C     0.07139   0.44691   0.01135   0.00000  Uiso   1.00
C68    C     0.18757   0.22309   0.15180   0.00000  Uiso   1.00
C69    C     0.15107   0.29274   0.11722   0.00000  Uiso   1.00
H40    H     0.21180   0.26200   0.08839   0.00000  Uiso   1.00
O14    O     0.14544   0.32857   0.08457   0.00000  Uiso   1.00
H41    H     0.08532   0.45804   0.97775   0.00000  Uiso   1.00
C70    C     0.18627   0.25899   0.11663   0.00000  Uiso   1.00
H42    H     0.97977   0.60318   0.12961   0.00000  Uiso   1.00
C71    C     0.90473   0.41116   0.96472   0.00000  Uiso   1.00
C72    C     0.92861   0.44691   0.98865   0.00000  Uiso   1.00
C73    C     0.81243   0.22309   0.84820   0.00000  Uiso   1.00
C74    C     0.84893   0.29274   0.88278   0.00000  Uiso   1.00
H43    H     0.78820   0.26200   0.91161   0.00000  Uiso   1.00
O15    O     0.85456   0.32857   0.91543   0.00000  Uiso   1.00
H44    H     0.91468   0.45804   0.02225   0.00000  Uiso   1.00
C75    C     0.81373   0.25899   0.88337   0.00000  Uiso   1.00
H45    H     0.02023   0.60318   0.87039   0.00000  Uiso   1.00
C76    C     0.09527   0.58884   0.96472   0.00000  Uiso   1.00
C77    C     0.07139   0.55309   0.98865   0.00000  Uiso   1.00
C78    C     0.18757   0.77691   0.84820   0.00000  Uiso   1.00
C79    C     0.15107   0.70726   0.88278   0.00000  Uiso   1.00
H46    H     0.21180   0.73800   0.91161   0.00000  Uiso   1.00
O16    O     0.14544   0.67143   0.91543   0.00000  Uiso   1.00
H47    H     0.08532   0.54196   0.02225   0.00000  Uiso   1.00
C80    C     0.18627   0.74101   0.88337   0.00000  Uiso   1.00
H48    H     0.97977   0.39682   0.87039   0.00000  Uiso   1.00
C81    C     0.58884   0.03528   0.90473   0.00000  Uiso   1.00
C82    C     0.55309   0.01135   0.92861   0.00000  Uiso   1.00
C83    C     0.77691   0.15180   0.81243   0.00000  Uiso   1.00
C84    C     0.70726   0.11722   0.84893   0.00000  Uiso   1.00
H49    H     0.73800   0.08839   0.78820   0.00000  Uiso   1.00
O17    O     0.67143   0.08457   0.85456   0.00000  Uiso   1.00
H50    H     0.54196   0.97775   0.91468   0.00000  Uiso   1.00
C85    C     0.74101   0.11663   0.81373   0.00000  Uiso   1.00
H51    H     0.39682   0.12961   0.02023   0.00000  Uiso   1.00
C86    C     0.41116   0.03528   0.09527   0.00000  Uiso   1.00
C87    C     0.44691   0.01135   0.07139   0.00000  Uiso   1.00
C88    C     0.22309   0.15180   0.18757   0.00000  Uiso   1.00
C89    C     0.29274   0.11722   0.15107   0.00000  Uiso   1.00
H52    H     0.26200   0.08839   0.21180   0.00000  Uiso   1.00
O18    O     0.32857   0.08457   0.14544   0.00000  Uiso   1.00
H53    H     0.45804   0.97775   0.08532   0.00000  Uiso   1.00
C90    C     0.25899   0.11663   0.18627   0.00000  Uiso   1.00
H54    H     0.60318   0.12961   0.97977   0.00000  Uiso   1.00
C91    C     0.41116   0.96472   0.90473   0.00000  Uiso   1.00
C92    C     0.44691   0.98865   0.92861   0.00000  Uiso   1.00
C93    C     0.22309   0.84820   0.81243   0.00000  Uiso   1.00
C94    C     0.29274   0.88278   0.84893   0.00000  Uiso   1.00
H55    H     0.26200   0.91161   0.78820   0.00000  Uiso   1.00
O19    O     0.32857   0.91543   0.85456   0.00000  Uiso   1.00
H56    H     0.45804   0.02225   0.91468   0.00000  Uiso   1.00
C95    C     0.25899   0.88337   0.81373   0.00000  Uiso   1.00
H57    H     0.60318   0.87039   0.02023   0.00000  Uiso   1.00
C96    C     0.58884   0.96472   0.09527   0.00000  Uiso   1.00
C97    C     0.55309   0.98865   0.07139   0.00000  Uiso   1.00
C98    C     0.77691   0.84820   0.18757   0.00000  Uiso   1.00
C99    C     0.70726   0.88278   0.15107   0.00000  Uiso   1.00
H58    H     0.73800   0.91161   0.21180   0.00000  Uiso   1.00
O20    O     0.67143   0.91543   0.14544   0.00000  Uiso   1.00
H59    H     0.54196   0.02225   0.08532   0.00000  Uiso   1.00
C100   C     0.74101   0.88337   0.18627   0.00000  Uiso   1.00
H60    H     0.39682   0.87039   0.97977   0.00000  Uiso   1.00
C101   C     0.03528   0.90473   0.58884   0.00000  Uiso   1.00
C102   C     0.01135   0.92861   0.55309   0.00000  Uiso   1.00
C103   C     0.15180   0.81243   0.77691   0.00000  Uiso   1.00
C104   C     0.11722   0.84893   0.70726   0.00000  Uiso   1.00
H61    H     0.08839   0.78820   0.73800   0.00000  Uiso   1.00
O21    O     0.08457   0.85456   0.67143   0.00000  Uiso   1.00
H62    H     0.97775   0.91468   0.54196   0.00000  Uiso   1.00
C105   C     0.11663   0.81373   0.74101   0.00000  Uiso   1.00
H63    H     0.12961   0.02023   0.39682   0.00000  Uiso   1.00
C106   C     0.03528   0.09527   0.41116   0.00000  Uiso   1.00
C107   C     0.01135   0.07139   0.44691   0.00000  Uiso   1.00
C108   C     0.15180   0.18757   0.22309   0.00000  Uiso   1.00
C109   C     0.11722   0.15107   0.29274   0.00000  Uiso   1.00
H64    H     0.08839   0.21180   0.26200   0.00000  Uiso   1.00
O22    O     0.08457   0.14544   0.32857   0.00000  Uiso   1.00
H65    H     0.97775   0.08532   0.45804   0.00000  Uiso   1.00
C110   C     0.11663   0.18627   0.25899   0.00000  Uiso   1.00
H66    H     0.12961   0.97977   0.60318   0.00000  Uiso   1.00
C111   C     0.96472   0.90473   0.41116   0.00000  Uiso   1.00
C112   C     0.98865   0.92861   0.44691   0.00000  Uiso   1.00
C113   C     0.84820   0.81243   0.22309   0.00000  Uiso   1.00
C114   C     0.88278   0.84893   0.29274   0.00000  Uiso   1.00
H67    H     0.91161   0.78820   0.26200   0.00000  Uiso   1.00
O23    O     0.91543   0.85456   0.32857   0.00000  Uiso   1.00
H68    H     0.02225   0.91468   0.45804   0.00000  Uiso   1.00
C115   C     0.88337   0.81373   0.25899   0.00000  Uiso   1.00
H69    H     0.87039   0.02023   0.60318   0.00000  Uiso   1.00
C116   C     0.96472   0.09527   0.58884   0.00000  Uiso   1.00
C117   C     0.98865   0.07139   0.55309   0.00000  Uiso   1.00
C118   C     0.84820   0.18757   0.77691   0.00000  Uiso   1.00
C119   C     0.88278   0.15107   0.70726   0.00000  Uiso   1.00
H70    H     0.91161   0.21180   0.73800   0.00000  Uiso   1.00
O24    O     0.91543   0.14544   0.67143   0.00000  Uiso   1.00
H71    H     0.02225   0.08532   0.54196   0.00000  Uiso   1.00
C120   C     0.88337   0.18627   0.74101   0.00000  Uiso   1.00
H72    H     0.87039   0.97977   0.39682   0.00000  Uiso   1.00
B1     B     0.64886   0.89710   0.10290   0.00000  Uiso   1.00
C121   C     0.60702   0.92264   0.07736   0.00000  Uiso   1.00
C122   C     0.53295   0.97038   0.02962   0.00000  Uiso   1.00
B2     B     0.35114   0.10290   0.10290   0.00000  Uiso   1.00
C123   C     0.39298   0.07736   0.07736   0.00000  Uiso   1.00
C124   C     0.46705   0.02962   0.02962   0.00000  Uiso   1.00
B3     B     0.35114   0.89710   0.89710   0.00000  Uiso   1.00
C125   C     0.39298   0.92264   0.92264   0.00000  Uiso   1.00
C126   C     0.46705   0.97038   0.97038   0.00000  Uiso   1.00
B4     B     0.64886   0.10290   0.89710   0.00000  Uiso   1.00
C127   C     0.60702   0.07736   0.92264   0.00000  Uiso   1.00
C128   C     0.53295   0.02962   0.97038   0.00000  Uiso   1.00
B5     B     0.10290   0.64886   0.89710   0.00000  Uiso   1.00
C129   C     0.07736   0.60702   0.92264   0.00000  Uiso   1.00
C130   C     0.02962   0.53295   0.97038   0.00000  Uiso   1.00
B6     B     0.10290   0.35114   0.10290   0.00000  Uiso   1.00
C131   C     0.07736   0.39298   0.07736   0.00000  Uiso   1.00
C132   C     0.02962   0.46705   0.02962   0.00000  Uiso   1.00
B7     B     0.89710   0.35114   0.89710   0.00000  Uiso   1.00
C133   C     0.92264   0.39298   0.92264   0.00000  Uiso   1.00
C134   C     0.97038   0.46705   0.97038   0.00000  Uiso   1.00
B8     B     0.89710   0.64886   0.10290   0.00000  Uiso   1.00
C135   C     0.92264   0.60702   0.07736   0.00000  Uiso   1.00
C136   C     0.97038   0.53295   0.02962   0.00000  Uiso   1.00
B9     B     0.89710   0.10290   0.64886   0.00000  Uiso   1.00
C137   C     0.92264   0.07736   0.60702   0.00000  Uiso   1.00
C138   C     0.97038   0.02962   0.53295   0.00000  Uiso   1.00
B10    B     0.10290   0.10290   0.35114   0.00000  Uiso   1.00
C139   C     0.07736   0.07736   0.39298   0.00000  Uiso   1.00
C140   C     0.02962   0.02962   0.46705   0.00000  Uiso   1.00
B11    B     0.89710   0.89710   0.35114   0.00000  Uiso   1.00
C141   C     0.92264   0.92264   0.39298   0.00000  Uiso   1.00
C142   C     0.97038   0.97038   0.46705   0.00000  Uiso   1.00
B12    B     0.10290   0.89710   0.64886   0.00000  Uiso   1.00
C143   C     0.07736   0.92264   0.60702   0.00000  Uiso   1.00
C144   C     0.02962   0.97038   0.53295   0.00000  Uiso   1.00
C145   C     0.50000   0.00000   0.00000   0.00000  Uiso   1.00
C146   C     0.00000   0.50000   0.00000   0.00000  Uiso   1.00
C147   C     0.00000   0.00000   0.50000   0.00000  Uiso   1.00
loop_
_geom_bond_atom_site_label_1
_geom_bond_atom_site_label_2
_geom_bond_distance
_geom_bond_site_symmetry_2
_ccdc_geom_bond_type
C1     C2      1.397   .     S
C1     H57     1.140   .     S
C1     C121    1.398   .     S
C2     C122    1.416   .     S
C3     C63     1.427   .     S
C3     C5      1.428   .     S
C3     C98     1.437   .     S
C4     C5      1.385   .     S
C4     O1      1.386   .     S
C4     C99     1.360   .     S
H1     C5      1.085   .     S
O1     B1      1.463   .     S
H3     C86     1.140   .     S
C6     C7      1.397   .     S
C6     H51     1.140   .     S
C6     C123    1.398   .     S
C7     C124    1.416   .     S
C8     C68     1.427   .     S
C8     C10     1.428   .     S
C8     C88     1.437   .     S
C9     C10     1.385   .     S
C9     O2      1.386   .     S
C9     C89     1.360   .     S
H4     C10     1.085   .     S
O2     B2      1.463   .     S
H6     C96     1.140   .     S
C11    C12     1.397   .     S
C11    H60     1.140   .     S
C11    C125    1.398   .     S
C12    C126    1.416   .     S
C13    C93     1.437   .     S
C13    C78     1.427   .     S
C13    C15     1.428   .     S
C14    C15     1.385   .     S
C14    O3      1.386   .     S
C14    C94     1.360   .     S
H7     C15     1.085   .     S
O3     B3      1.463   .     S
H9     C81     1.140   .     S
C16    C17     1.397   .     S
C16    H54     1.140   .     S
C16    C127    1.398   .     S
C17    C128    1.416   .     S
C18    C73     1.427   .     S
C18    C83     1.437   .     S
C18    C20     1.428   .     S
C19    C20     1.385   .     S
C19    O4      1.386   .     S
C19    C84     1.360   .     S
H10    C20     1.085   .     S
O4     B4      1.463   .     S
H12    C91     1.140   .     S
C21    C129    1.398   .     S
C21    C22     1.397   .     S
C21    H45     1.140   .     S
C22    C130    1.416   .     S
C23    C78     1.437   .     S
C23    C25     1.428   .     S
C23    C103    1.427   .     S
C24    C25     1.385   .     S
C24    O5      1.386   .     S
C24    C79     1.360   .     S
H13    C25     1.085   .     S
O5     B5      1.463   .     S
H15    C66     1.140   .     S
C26    C131    1.398   .     S
C26    C27     1.397   .     S
C26    H39     1.140   .     S
C27    C132    1.416   .     S
C28    C108    1.427   .     S
C28    C30     1.428   .     S
C28    C68     1.437   .     S
C29    C30     1.385   .     S
C29    O6      1.386   .     S
C29    C69     1.360   .     S
H16    C30     1.085   .     S
O6     B6      1.463   .     S
H18    C76     1.140   .     S
C31    C133    1.398   .     S
C31    C32     1.397   .     S
C31    H48     1.140   .     S
C32    C134    1.416   .     S
C33    C73     1.437   .     S
C33    C35     1.428   .     S
C33    C118    1.427   .     S
C34    C35     1.385   .     S
C34    O7      1.386   .     S
C34    C74     1.360   .     S
H19    C35     1.085   .     S
O7     B7      1.463   .     S
H21    C61     1.140   .     S
C36    C135    1.398   .     S
C36    C37     1.397   .     S
C36    H42     1.140   .     S
C37    C136    1.416   .     S
C38    C113    1.427   .     S
C38    C63     1.437   .     S
C38    C40     1.428   .     S
C39    C40     1.385   .     S
C39    O8      1.386   .     S
C39    C64     1.360   .     S
H22    C40     1.085   .     S
O8     B8      1.463   .     S
H24    C71     1.140   .     S
C41    H69     1.140   .     S
C41    C137    1.398   .     S
C41    C42     1.397   .     S
C42    C138    1.416   .     S
C43    C118    1.437   .     S
C43    C45     1.428   .     S
C43    C83     1.427   .     S
C44    C45     1.385   .     S
C44    C119    1.360   .     S
C44    O9      1.386   .     S
H25    C45     1.085   .     S
O9     B9      1.463   .     S
H27    C106    1.140   .     S
C46    H63     1.140   .     S
C46    C139    1.398   .     S
C46    C47     1.397   .     S
C47    C140    1.416   .     S
C48    C88     1.427   .     S
C48    C108    1.437   .     S
C48    C50     1.428   .     S
C49    C50     1.385   .     S
C49    C109    1.360   .     S
C49    O10     1.386   .     S
H28    C50     1.085   .     S
O10    B10     1.463   .     S
H30    C116    1.140   .     S
C51    H72     1.140   .     S
C51    C141    1.398   .     S
C51    C52     1.397   .     S
C52    C142    1.416   .     S
C53    C113    1.437   .     S
C53    C98     1.427   .     S
C53    C55     1.428   .     S
C54    C55     1.385   .     S
C54    C114    1.360   .     S
C54    O11     1.386   .     S
H31    C55     1.085   .     S
O11    B11     1.463   .     S
H33    C101    1.140   .     S
C56    H66     1.140   .     S
C56    C143    1.398   .     S
C56    C57     1.397   .     S
C57    C144    1.416   .     S
C58    C103    1.437   .     S
C58    C60     1.428   .     S
C58    C93     1.427   .     S
C59    C60     1.385   .     S
C59    C104    1.360   .     S
C59    O12     1.386   .     S
H34    C60     1.085   .     S
O12    B12     1.463   .     S
H36    C111    1.140   .     S
C61    C62     1.397   .     S
C61    C135    1.398   .     S
C62    C136    1.416   .     S
C63    C65     1.428   .     S
C64    C65     1.385   .     S
C64    O13     1.386   .     S
H37    C65     1.085   .     S
O13    B8      1.463   .     S
C66    C67     1.397   .     S
C66    C131    1.398   .     S
C67    C132    1.416   .     S
C68    C70     1.428   .     S
C69    C70     1.385   .     S
C69    O14     1.386   .     S
H40    C70     1.085   .     S
O14    B6      1.463   .     S
C71    C72     1.397   .     S
C71    C133    1.398   .     S
C72    C134    1.416   .     S
C73    C75     1.428   .     S
C74    C75     1.385   .     S
C74    O15     1.386   .     S
H43    C75     1.085   .     S
O15    B7      1.463   .     S
C76    C77     1.397   .     S
C76    C129    1.398   .     S
C77    C130    1.416   .     S
C78    C80     1.428   .     S
C79    C80     1.385   .     S
C79    O16     1.386   .     S
H46    C80     1.085   .     S
O16    B5      1.463   .     S
C81    C82     1.397   .     S
C81    C127    1.398   .     S
C82    C128    1.416   .     S
C83    C85     1.428   .     S
C84    C85     1.385   .     S
C84    O17     1.386   .     S
H49    C85     1.085   .     S
O17    B4      1.463   .     S
C86    C87     1.397   .     S
C86    C123    1.398   .     S
C87    C124    1.416   .     S
C88    C90     1.428   .     S
C89    C90     1.385   .     S
C89    O18     1.386   .     S
H52    C90     1.085   .     S
O18    B2      1.463   .     S
C91    C92     1.397   .     S
C91    C125    1.398   .     S
C92    C126    1.416   .     S
C93    C95     1.428   .     S
C94    C95     1.385   .     S
C94    O19     1.386   .     S
H55    C95     1.085   .     S
O19    B3      1.463   .     S
C96    C97     1.397   .     S
C96    C121    1.398   .     S
C97    C122    1.416   .     S
C98    C100    1.428   .     S
C99    C100    1.385   .     S
C99    O20     1.386   .     S
H58    C100    1.085   .     S
O20    B1      1.463   .     S
C101   C143    1.398   .     S
C101   C102    1.397   .     S
C102   C144    1.416   .     S
C103   C105    1.428   .     S
C104   C105    1.385   .     S
C104   O21     1.386   .     S
H61    C105    1.085   .     S
O21    B12     1.463   .     S
C106   C139    1.398   .     S
C106   C107    1.397   .     S
C107   C140    1.416   .     S
C108   C110    1.428   .     S
C109   C110    1.385   .     S
C109   O22     1.386   .     S
H64    C110    1.085   .     S
O22    B10     1.463   .     S
C111   C141    1.398   .     S
C111   C112    1.397   .     S
C112   C142    1.416   .     S
C113   C115    1.428   .     S
C114   C115    1.385   .     S
C114   O23     1.386   .     S
H67    C115    1.085   .     S
O23    B11     1.463   .     S
C116   C137    1.398   .     S
C116   C117    1.397   .     S
C117   C138    1.416   .     S
C118   C120    1.428   .     S
C119   C120    1.385   .     S
C119   O24     1.386   .     S
H70    C120    1.085   .     S
O24    B9      1.463   .     S
B1     C121    1.570   .     S
B2     C123    1.570   .     S
C124   C145    1.514   .     S
B3     C125    1.570   .     S
B4     C127    1.570   .     S
B5     C129    1.570   .     S
B6     C131    1.570   .     S
C132   C146    1.514   .     S
B7     C133    1.570   .     S
B8     C135    1.570   .     S
B9     C137    1.570   .     S
B10    C139    1.570   .     S
C140   C147    1.514   .     S
B11    C141    1.570   .     S
B12    C143    1.570   .     S
