data_COF-6
_audit_creation_date              2016-12-13
_audit_creation_method            'Materials Studio'
_symmetry_space_group_name_H-M    'P1'
_symmetry_Int_Tables_number       1
_symmetry_cell_setting            triclinic
loop_
_symmetry_equiv_pos_as_xyz
  x,y,z
_cell_length_a                    15.0911
_cell_length_b                    15.0911
_cell_length_c                    3.5988
_cell_angle_alpha                 90.0000
_cell_angle_beta                  90.0000
_cell_angle_gamma                 120.0000
loop_
_atom_site_label
_atom_site_type_symbol
_atom_site_fract_x
_atom_site_fract_y
_atom_site_fract_z
_atom_site_U_iso_or_equiv
_atom_site_adp_type
_atom_site_occupancy
B1     B     0.44674   0.55326   0.50000   0.00000  Uiso   1.00
C1     C     0.38702   0.61298   0.50000   0.00000  Uiso   1.00
B2     B     0.44674   0.89348   0.50000   0.00000  Uiso   1.00
C2     C     0.38702   0.77404   0.50000   0.00000  Uiso   1.00
B3     B     0.10652   0.55326   0.50000   0.00000  Uiso   1.00
C3     C     0.22596   0.61298   0.50000   0.00000  Uiso   1.00
O1     O     0.55852   0.95472   0.50000   0.00000  Uiso   1.00
C4     C     0.66693   0.23861   0.50000   0.00000  Uiso   1.00
C5     C     0.57120   0.05219   0.50000   0.00000  Uiso   1.00
C6     C     0.66411   0.14263   0.50000   0.00000  Uiso   1.00
H1     H     0.73066   0.13415   0.50000   0.00000  Uiso   1.00
O2     O     0.04528   0.60380   0.50000   0.00000  Uiso   1.00
C7     C     0.76139   0.42832   0.50000   0.00000  Uiso   1.00
C8     C     0.94781   0.51901   0.50000   0.00000  Uiso   1.00
C9     C     0.85737   0.52148   0.50000   0.00000  Uiso   1.00
H2     H     0.86585   0.59651   0.50000   0.00000  Uiso   1.00
O3     O     0.39620   0.44148   0.50000   0.00000  Uiso   1.00
C10    C     0.57168   0.33307   0.50000   0.00000  Uiso   1.00
C11    C     0.48099   0.42880   0.50000   0.00000  Uiso   1.00
C12    C     0.47852   0.33589   0.50000   0.00000  Uiso   1.00
H3     H     0.40349   0.26934   0.50000   0.00000  Uiso   1.00
O4     O     0.04528   0.44148   0.50000   0.00000  Uiso   1.00
C13    C     0.76139   0.33307   0.50000   0.00000  Uiso   1.00
C14    C     0.94781   0.42880   0.50000   0.00000  Uiso   1.00
C15    C     0.85737   0.33589   0.50000   0.00000  Uiso   1.00
H4     H     0.86585   0.26934   0.50000   0.00000  Uiso   1.00
O5     O     0.39620   0.95472   0.50000   0.00000  Uiso   1.00
C16    C     0.57168   0.23861   0.50000   0.00000  Uiso   1.00
C17    C     0.48099   0.05219   0.50000   0.00000  Uiso   1.00
C18    C     0.47852   0.14263   0.50000   0.00000  Uiso   1.00
H5     H     0.40349   0.13415   0.50000   0.00000  Uiso   1.00
O6     O     0.55852   0.60380   0.50000   0.00000  Uiso   1.00
C19    C     0.66693   0.42832   0.50000   0.00000  Uiso   1.00
C20    C     0.57120   0.51901   0.50000   0.00000  Uiso   1.00
C21    C     0.66411   0.52148   0.50000   0.00000  Uiso   1.00
H6     H     0.73066   0.59651   0.50000   0.00000  Uiso   1.00
C22    C     0.44044   0.72022   0.50000   0.00000  Uiso   1.00
C23    C     0.27978   0.72022   0.50000   0.00000  Uiso   1.00
C24    C     0.27978   0.55956   0.50000   0.00000  Uiso   1.00
H7     H     0.23829   0.47658   0.50000   0.00000  Uiso   1.00
H8     H     0.52342   0.76171   0.50000   0.00000  Uiso   1.00
H9     H     0.23829   0.76171   0.50000   0.00000  Uiso   1.00
loop_
_geom_bond_atom_site_label_1
_geom_bond_atom_site_label_2
_geom_bond_distance
_geom_bond_site_symmetry_2
_ccdc_geom_bond_type
B1     C1      1.561   .     S
B1     O6      1.463   .     S
B1     O3      1.463   .     S
C1     C24     1.402   .     S
C1     C22     1.402   .     S
B2     O1      1.463   .     S
B2     O5      1.463   .     S
B2     C2      1.561   .     S
C2     C22     1.402   .     S
C2     C23     1.402   .     S
B3     O2      1.463   .     S
B3     C3      1.561   .     S
B3     O4      1.463   .     S
C3     C24     1.402   .     S
C3     C23     1.402   .     S
C4     C16     1.437   .     S
C4     C6      1.428   .     S
C4     C13     1.426   .     S
C5     C17     1.361   .     S
C5     C6      1.384   .     S
C6     H1      1.074   .     S
C7     C19     1.426   .     S
C7     C9      1.428   .     S
C7     C13     1.437   .     S
C8     C9      1.384   .     S
C8     C14     1.361   .     S
C9     H2      1.074   .     S
O3     C11     1.385   .     S
C10    C12     1.428   .     S
C10    C19     1.437   .     S
C10    C16     1.426   .     S
C11    C20     1.361   .     S
C11    C12     1.384   .     S
C12    H3      1.074   .     S
C13    C15     1.428   .     S
C14    C15     1.384   .     S
C15    H4      1.074   .     S
C16    C18     1.428   .     S
C17    C18     1.384   .     S
C18    H5      1.074   .     S
O6     C20     1.385   .     S
C19    C21     1.428   .     S
C20    C21     1.384   .     S
C21    H6      1.074   .     S
C22    H8      1.084   .     S
C23    H9      1.084   .     S
C24    H7      1.084   .     S
