data_COF-320
_audit_creation_date              2016-12-13
_audit_creation_method            'Materials Studio'
_symmetry_space_group_name_H-M    'P1'
_symmetry_Int_Tables_number       1
_symmetry_cell_setting            triclinic
loop_
_symmetry_equiv_pos_as_xyz
  x,y,z
_cell_length_a                    27.9300
_cell_length_b                    31.3100
_cell_length_c                    7.8900
_cell_angle_alpha                 90.0000
_cell_angle_beta                  90.0000
_cell_angle_gamma                 90.0000
loop_
_atom_site_label
_atom_site_type_symbol
_atom_site_fract_x
_atom_site_fract_y
_atom_site_fract_z
_atom_site_U_iso_or_equiv
_atom_site_adp_type
_atom_site_occupancy
C1     C     0.04325   0.30579   0.89595   0.00000  Uiso   1.00
C2     C     0.04325   0.34088   0.78666   0.00000  Uiso   1.00
C3     C     0.93751   0.21142   0.26889   0.00000  Uiso   1.00
C4     C     0.90000   0.21144   0.38614   0.00000  Uiso   1.00
H1     H     0.07729   0.29225   0.93221   0.00000  Uiso   1.00
H2     H     0.07692   0.35365   0.74119   0.00000  Uiso   1.00
H3     H     0.95162   0.18099   0.22850   0.00000  Uiso   1.00
H4     H     0.88627   0.18140   0.43375   0.00000  Uiso   1.00
C5     C     0.04313   0.43610   0.26625   0.00000  Uiso   1.00
C6     C     0.04328   0.46705   0.13853   0.00000  Uiso   1.00
C7     C     0.80936   0.21154   0.94819   0.00000  Uiso   1.00
C8     C     0.78039   0.21140   0.09275   0.00000  Uiso   1.00
H5     H     0.07685   0.42379   0.31350   0.00000  Uiso   1.00
H6     H     0.07800   0.47720   0.09536   0.00000  Uiso   1.00
H7     H     0.82122   0.18146   0.89476   0.00000  Uiso   1.00
H8     H     0.77099   0.18044   0.14152   0.00000  Uiso   1.00
C9     C     0.54325   0.80579   0.39595   0.00000  Uiso   1.00
C10    C     0.54325   0.84088   0.28666   0.00000  Uiso   1.00
C11    C     0.43751   0.71142   0.76889   0.00000  Uiso   1.00
C12    C     0.40000   0.71144   0.88614   0.00000  Uiso   1.00
H9     H     0.57729   0.79225   0.43221   0.00000  Uiso   1.00
H10    H     0.57692   0.85365   0.24119   0.00000  Uiso   1.00
H11    H     0.45162   0.68099   0.72850   0.00000  Uiso   1.00
H12    H     0.38627   0.68140   0.93375   0.00000  Uiso   1.00
C13    C     0.54313   0.93610   0.76625   0.00000  Uiso   1.00
C14    C     0.54328   0.96705   0.63853   0.00000  Uiso   1.00
C15    C     0.30936   0.71154   0.44819   0.00000  Uiso   1.00
C16    C     0.28039   0.71140   0.59275   0.00000  Uiso   1.00
H13    H     0.57685   0.92379   0.81350   0.00000  Uiso   1.00
H14    H     0.57800   0.97720   0.59536   0.00000  Uiso   1.00
H15    H     0.32122   0.68146   0.39476   0.00000  Uiso   1.00
H16    H     0.27099   0.68044   0.64152   0.00000  Uiso   1.00
C17    C     0.95675   0.19421   0.89595   0.00000  Uiso   1.00
C18    C     0.95675   0.15912   0.78666   0.00000  Uiso   1.00
C19    C     0.06249   0.28858   0.26889   0.00000  Uiso   1.00
C20    C     0.10000   0.28856   0.38614   0.00000  Uiso   1.00
H17    H     0.92271   0.20775   0.93221   0.00000  Uiso   1.00
H18    H     0.92308   0.14635   0.74119   0.00000  Uiso   1.00
H19    H     0.04838   0.31901   0.22850   0.00000  Uiso   1.00
H20    H     0.11373   0.31860   0.43375   0.00000  Uiso   1.00
C21    C     0.95687   0.06390   0.26625   0.00000  Uiso   1.00
C22    C     0.95672   0.03295   0.13853   0.00000  Uiso   1.00
C23    C     0.19064   0.28846   0.94819   0.00000  Uiso   1.00
C24    C     0.21961   0.28860   0.09275   0.00000  Uiso   1.00
H21    H     0.92315   0.07621   0.31350   0.00000  Uiso   1.00
H22    H     0.92200   0.02280   0.09536   0.00000  Uiso   1.00
H23    H     0.17878   0.31854   0.89476   0.00000  Uiso   1.00
H24    H     0.22901   0.31956   0.14152   0.00000  Uiso   1.00
C25    C     0.45675   0.69421   0.39595   0.00000  Uiso   1.00
C26    C     0.45675   0.65912   0.28666   0.00000  Uiso   1.00
C27    C     0.56249   0.78858   0.76889   0.00000  Uiso   1.00
C28    C     0.60000   0.78856   0.88614   0.00000  Uiso   1.00
H25    H     0.42271   0.70775   0.43221   0.00000  Uiso   1.00
H26    H     0.42308   0.64635   0.24119   0.00000  Uiso   1.00
H27    H     0.54838   0.81901   0.72850   0.00000  Uiso   1.00
H28    H     0.61373   0.81860   0.93375   0.00000  Uiso   1.00
C29    C     0.45687   0.56390   0.76625   0.00000  Uiso   1.00
C30    C     0.45672   0.53295   0.63853   0.00000  Uiso   1.00
C31    C     0.69064   0.78846   0.44819   0.00000  Uiso   1.00
C32    C     0.71961   0.78860   0.59275   0.00000  Uiso   1.00
H29    H     0.42315   0.57621   0.81350   0.00000  Uiso   1.00
H30    H     0.42200   0.52280   0.59536   0.00000  Uiso   1.00
H31    H     0.67878   0.81854   0.39476   0.00000  Uiso   1.00
H32    H     0.72901   0.81956   0.64152   0.00000  Uiso   1.00
C33    C     0.95675   0.80579   0.10405   0.00000  Uiso   1.00
C34    C     0.95675   0.84088   0.21334   0.00000  Uiso   1.00
C35    C     0.06249   0.71142   0.73111   0.00000  Uiso   1.00
C36    C     0.10000   0.71144   0.61386   0.00000  Uiso   1.00
H33    H     0.92271   0.79225   0.06779   0.00000  Uiso   1.00
H34    H     0.92308   0.85365   0.25881   0.00000  Uiso   1.00
H35    H     0.04838   0.68099   0.77150   0.00000  Uiso   1.00
H36    H     0.11373   0.68140   0.56625   0.00000  Uiso   1.00
C37    C     0.95687   0.93610   0.73375   0.00000  Uiso   1.00
C38    C     0.95672   0.96705   0.86147   0.00000  Uiso   1.00
C39    C     0.19064   0.71154   0.05181   0.00000  Uiso   1.00
C40    C     0.21961   0.71140   0.90725   0.00000  Uiso   1.00
H37    H     0.92315   0.92379   0.68650   0.00000  Uiso   1.00
H38    H     0.92200   0.97720   0.90464   0.00000  Uiso   1.00
H39    H     0.17878   0.68146   0.10524   0.00000  Uiso   1.00
H40    H     0.22901   0.68044   0.85848   0.00000  Uiso   1.00
C41    C     0.45675   0.30579   0.60405   0.00000  Uiso   1.00
C42    C     0.45675   0.34088   0.71334   0.00000  Uiso   1.00
C43    C     0.56249   0.21142   0.23111   0.00000  Uiso   1.00
C44    C     0.60000   0.21144   0.11386   0.00000  Uiso   1.00
H41    H     0.42271   0.29225   0.56779   0.00000  Uiso   1.00
H42    H     0.42308   0.35365   0.75881   0.00000  Uiso   1.00
H43    H     0.54838   0.18099   0.27150   0.00000  Uiso   1.00
H44    H     0.61373   0.18140   0.06625   0.00000  Uiso   1.00
C45    C     0.45687   0.43610   0.23375   0.00000  Uiso   1.00
C46    C     0.45672   0.46705   0.36147   0.00000  Uiso   1.00
C47    C     0.69064   0.21154   0.55181   0.00000  Uiso   1.00
C48    C     0.71961   0.21140   0.40725   0.00000  Uiso   1.00
H45    H     0.42315   0.42379   0.18650   0.00000  Uiso   1.00
H46    H     0.42200   0.47720   0.40464   0.00000  Uiso   1.00
H47    H     0.67878   0.18146   0.60524   0.00000  Uiso   1.00
H48    H     0.72901   0.18044   0.35848   0.00000  Uiso   1.00
C49    C     0.04325   0.69421   0.10405   0.00000  Uiso   1.00
C50    C     0.04325   0.65912   0.21334   0.00000  Uiso   1.00
C51    C     0.93751   0.78858   0.73111   0.00000  Uiso   1.00
C52    C     0.90000   0.78856   0.61386   0.00000  Uiso   1.00
H49    H     0.07729   0.70775   0.06779   0.00000  Uiso   1.00
H50    H     0.07692   0.64635   0.25881   0.00000  Uiso   1.00
H51    H     0.95162   0.81901   0.77150   0.00000  Uiso   1.00
H52    H     0.88627   0.81860   0.56625   0.00000  Uiso   1.00
C53    C     0.04313   0.56390   0.73375   0.00000  Uiso   1.00
C54    C     0.04328   0.53295   0.86147   0.00000  Uiso   1.00
C55    C     0.80936   0.78846   0.05181   0.00000  Uiso   1.00
C56    C     0.78039   0.78860   0.90725   0.00000  Uiso   1.00
H53    H     0.07685   0.57621   0.68650   0.00000  Uiso   1.00
H54    H     0.07800   0.52280   0.90464   0.00000  Uiso   1.00
H55    H     0.82122   0.81854   0.10524   0.00000  Uiso   1.00
H56    H     0.77099   0.81956   0.85848   0.00000  Uiso   1.00
C57    C     0.54325   0.19421   0.60405   0.00000  Uiso   1.00
C58    C     0.54325   0.15912   0.71334   0.00000  Uiso   1.00
C59    C     0.43751   0.28858   0.23111   0.00000  Uiso   1.00
C60    C     0.40000   0.28856   0.11386   0.00000  Uiso   1.00
H57    H     0.57729   0.20775   0.56779   0.00000  Uiso   1.00
H58    H     0.57692   0.14635   0.75881   0.00000  Uiso   1.00
H59    H     0.45162   0.31901   0.27150   0.00000  Uiso   1.00
H60    H     0.38627   0.31860   0.06625   0.00000  Uiso   1.00
C61    C     0.54313   0.06390   0.23375   0.00000  Uiso   1.00
C62    C     0.54328   0.03295   0.36147   0.00000  Uiso   1.00
C63    C     0.30936   0.28846   0.55181   0.00000  Uiso   1.00
C64    C     0.28039   0.28860   0.40725   0.00000  Uiso   1.00
H61    H     0.57685   0.07621   0.18650   0.00000  Uiso   1.00
H62    H     0.57800   0.02280   0.40464   0.00000  Uiso   1.00
H63    H     0.32122   0.31854   0.60524   0.00000  Uiso   1.00
H64    H     0.27099   0.31956   0.35848   0.00000  Uiso   1.00
C65    C     0.95675   0.69421   0.10405   0.00000  Uiso   1.00
C66    C     0.95675   0.65912   0.21334   0.00000  Uiso   1.00
C67    C     0.06249   0.78858   0.73111   0.00000  Uiso   1.00
C68    C     0.10000   0.78856   0.61386   0.00000  Uiso   1.00
H65    H     0.92271   0.70775   0.06779   0.00000  Uiso   1.00
H66    H     0.92308   0.64635   0.25881   0.00000  Uiso   1.00
H67    H     0.04838   0.81901   0.77150   0.00000  Uiso   1.00
H68    H     0.11373   0.81860   0.56625   0.00000  Uiso   1.00
C69    C     0.95687   0.56390   0.73375   0.00000  Uiso   1.00
C70    C     0.95672   0.53295   0.86147   0.00000  Uiso   1.00
C71    C     0.19064   0.78846   0.05181   0.00000  Uiso   1.00
C72    C     0.21961   0.78860   0.90725   0.00000  Uiso   1.00
H69    H     0.92315   0.57621   0.68650   0.00000  Uiso   1.00
H70    H     0.92200   0.52280   0.90464   0.00000  Uiso   1.00
H71    H     0.17878   0.81854   0.10524   0.00000  Uiso   1.00
H72    H     0.22901   0.81956   0.85848   0.00000  Uiso   1.00
C73    C     0.45675   0.19421   0.60405   0.00000  Uiso   1.00
C74    C     0.45675   0.15912   0.71334   0.00000  Uiso   1.00
C75    C     0.56249   0.28858   0.23111   0.00000  Uiso   1.00
C76    C     0.60000   0.28856   0.11386   0.00000  Uiso   1.00
H73    H     0.42271   0.20775   0.56779   0.00000  Uiso   1.00
H74    H     0.42308   0.14635   0.75881   0.00000  Uiso   1.00
H75    H     0.54838   0.31901   0.27150   0.00000  Uiso   1.00
H76    H     0.61373   0.31860   0.06625   0.00000  Uiso   1.00
C77    C     0.45687   0.06390   0.23375   0.00000  Uiso   1.00
C78    C     0.45672   0.03295   0.36147   0.00000  Uiso   1.00
C79    C     0.69064   0.28846   0.55181   0.00000  Uiso   1.00
C80    C     0.71961   0.28860   0.40725   0.00000  Uiso   1.00
H77    H     0.42315   0.07621   0.18650   0.00000  Uiso   1.00
H78    H     0.42200   0.02280   0.40464   0.00000  Uiso   1.00
H79    H     0.67878   0.31854   0.60524   0.00000  Uiso   1.00
H80    H     0.72901   0.31956   0.35848   0.00000  Uiso   1.00
C81    C     0.04325   0.80579   0.10405   0.00000  Uiso   1.00
C82    C     0.04325   0.84088   0.21334   0.00000  Uiso   1.00
C83    C     0.93751   0.71142   0.73111   0.00000  Uiso   1.00
C84    C     0.90000   0.71144   0.61386   0.00000  Uiso   1.00
H81    H     0.07729   0.79225   0.06779   0.00000  Uiso   1.00
H82    H     0.07692   0.85365   0.25881   0.00000  Uiso   1.00
H83    H     0.95162   0.68099   0.77150   0.00000  Uiso   1.00
H84    H     0.88627   0.68140   0.56625   0.00000  Uiso   1.00
C85    C     0.04313   0.93610   0.73375   0.00000  Uiso   1.00
C86    C     0.04328   0.96705   0.86147   0.00000  Uiso   1.00
C87    C     0.80936   0.71154   0.05181   0.00000  Uiso   1.00
C88    C     0.78039   0.71140   0.90725   0.00000  Uiso   1.00
H85    H     0.07685   0.92379   0.68650   0.00000  Uiso   1.00
H86    H     0.07800   0.97720   0.90464   0.00000  Uiso   1.00
H87    H     0.82122   0.68146   0.10524   0.00000  Uiso   1.00
H88    H     0.77099   0.68044   0.85848   0.00000  Uiso   1.00
C89    C     0.54325   0.30579   0.60405   0.00000  Uiso   1.00
C90    C     0.54325   0.34088   0.71334   0.00000  Uiso   1.00
C91    C     0.43751   0.21142   0.23111   0.00000  Uiso   1.00
C92    C     0.40000   0.21144   0.11386   0.00000  Uiso   1.00
H89    H     0.57729   0.29225   0.56779   0.00000  Uiso   1.00
H90    H     0.57692   0.35365   0.75881   0.00000  Uiso   1.00
H91    H     0.45162   0.18099   0.27150   0.00000  Uiso   1.00
H92    H     0.38627   0.18140   0.06625   0.00000  Uiso   1.00
C93    C     0.54313   0.43610   0.23375   0.00000  Uiso   1.00
C94    C     0.54328   0.46705   0.36147   0.00000  Uiso   1.00
C95    C     0.30936   0.21154   0.55181   0.00000  Uiso   1.00
C96    C     0.28039   0.21140   0.40725   0.00000  Uiso   1.00
H93    H     0.57685   0.42379   0.18650   0.00000  Uiso   1.00
H94    H     0.57800   0.47720   0.40464   0.00000  Uiso   1.00
H95    H     0.32122   0.18146   0.60524   0.00000  Uiso   1.00
H96    H     0.27099   0.18044   0.35848   0.00000  Uiso   1.00
C97    C     0.04325   0.19421   0.89595   0.00000  Uiso   1.00
C98    C     0.04325   0.15912   0.78666   0.00000  Uiso   1.00
C99    C     0.93751   0.28858   0.26889   0.00000  Uiso   1.00
C100   C     0.90000   0.28856   0.38614   0.00000  Uiso   1.00
H97    H     0.07729   0.20775   0.93221   0.00000  Uiso   1.00
H98    H     0.07692   0.14635   0.74119   0.00000  Uiso   1.00
H99    H     0.95162   0.31901   0.22850   0.00000  Uiso   1.00
H100   H     0.88627   0.31860   0.43375   0.00000  Uiso   1.00
C101   C     0.04313   0.06390   0.26625   0.00000  Uiso   1.00
C102   C     0.04328   0.03295   0.13853   0.00000  Uiso   1.00
C103   C     0.80936   0.28846   0.94819   0.00000  Uiso   1.00
C104   C     0.78039   0.28860   0.09275   0.00000  Uiso   1.00
H101   H     0.07685   0.07621   0.31350   0.00000  Uiso   1.00
H102   H     0.07800   0.02280   0.09536   0.00000  Uiso   1.00
H103   H     0.82122   0.31854   0.89476   0.00000  Uiso   1.00
H104   H     0.77099   0.31956   0.14152   0.00000  Uiso   1.00
C105   C     0.54325   0.69421   0.39595   0.00000  Uiso   1.00
C106   C     0.54325   0.65912   0.28666   0.00000  Uiso   1.00
C107   C     0.43751   0.78858   0.76889   0.00000  Uiso   1.00
C108   C     0.40000   0.78856   0.88614   0.00000  Uiso   1.00
H105   H     0.57729   0.70775   0.43221   0.00000  Uiso   1.00
H106   H     0.57692   0.64635   0.24119   0.00000  Uiso   1.00
H107   H     0.45162   0.81901   0.72850   0.00000  Uiso   1.00
H108   H     0.38627   0.81860   0.93375   0.00000  Uiso   1.00
C109   C     0.54313   0.56390   0.76625   0.00000  Uiso   1.00
C110   C     0.54328   0.53295   0.63853   0.00000  Uiso   1.00
C111   C     0.30936   0.78846   0.44819   0.00000  Uiso   1.00
C112   C     0.28039   0.78860   0.59275   0.00000  Uiso   1.00
H109   H     0.57685   0.57621   0.81350   0.00000  Uiso   1.00
H110   H     0.57800   0.52280   0.59536   0.00000  Uiso   1.00
H111   H     0.32122   0.81854   0.39476   0.00000  Uiso   1.00
H112   H     0.27099   0.81956   0.64152   0.00000  Uiso   1.00
C113   C     0.95675   0.30579   0.89595   0.00000  Uiso   1.00
C114   C     0.95675   0.34088   0.78666   0.00000  Uiso   1.00
C115   C     0.06249   0.21142   0.26889   0.00000  Uiso   1.00
C116   C     0.10000   0.21144   0.38614   0.00000  Uiso   1.00
H113   H     0.92271   0.29225   0.93221   0.00000  Uiso   1.00
H114   H     0.92308   0.35365   0.74119   0.00000  Uiso   1.00
H115   H     0.04838   0.18099   0.22850   0.00000  Uiso   1.00
H116   H     0.11373   0.18140   0.43375   0.00000  Uiso   1.00
C117   C     0.95687   0.43610   0.26625   0.00000  Uiso   1.00
C118   C     0.95672   0.46705   0.13853   0.00000  Uiso   1.00
C119   C     0.19064   0.21154   0.94819   0.00000  Uiso   1.00
C120   C     0.21961   0.21140   0.09275   0.00000  Uiso   1.00
H117   H     0.92315   0.42379   0.31350   0.00000  Uiso   1.00
H118   H     0.92200   0.47720   0.09536   0.00000  Uiso   1.00
H119   H     0.17878   0.18146   0.89476   0.00000  Uiso   1.00
H120   H     0.22901   0.18044   0.14152   0.00000  Uiso   1.00
C121   C     0.45675   0.80579   0.39595   0.00000  Uiso   1.00
C122   C     0.45675   0.84088   0.28666   0.00000  Uiso   1.00
C123   C     0.56249   0.71142   0.76889   0.00000  Uiso   1.00
C124   C     0.60000   0.71144   0.88614   0.00000  Uiso   1.00
H121   H     0.42271   0.79225   0.43221   0.00000  Uiso   1.00
H122   H     0.42308   0.85365   0.24119   0.00000  Uiso   1.00
H123   H     0.54838   0.68099   0.72850   0.00000  Uiso   1.00
H124   H     0.61373   0.68140   0.93375   0.00000  Uiso   1.00
C125   C     0.45687   0.93610   0.76625   0.00000  Uiso   1.00
C126   C     0.45672   0.96705   0.63853   0.00000  Uiso   1.00
C127   C     0.69064   0.71154   0.44819   0.00000  Uiso   1.00
C128   C     0.71961   0.71140   0.59275   0.00000  Uiso   1.00
H125   H     0.42315   0.92379   0.81350   0.00000  Uiso   1.00
H126   H     0.42200   0.97720   0.59536   0.00000  Uiso   1.00
H127   H     0.67878   0.68146   0.39476   0.00000  Uiso   1.00
H128   H     0.72901   0.68044   0.64152   0.00000  Uiso   1.00
C129   C     0.00000   0.25000   0.08179   0.00000  Uiso   1.00
C130   C     0.50000   0.75000   0.58179   0.00000  Uiso   1.00
C131   C     0.00000   0.75000   0.91821   0.00000  Uiso   1.00
C132   C     0.50000   0.25000   0.41821   0.00000  Uiso   1.00
C133   C     0.00000   0.28888   0.96032   0.00000  Uiso   1.00
C134   C     0.00000   0.35897   0.73397   0.00000  Uiso   1.00
N1     N     0.00000   0.39361   0.61596   0.00000  Uiso   1.00
C135   C     0.00000   0.48339   0.07016   0.00000  Uiso   1.00
C136   C     0.00000   0.42066   0.33077   0.00000  Uiso   1.00
C137   C     0.00000   0.38593   0.45482   0.00000  Uiso   1.00
H129   H     0.00000   0.35344   0.40996   0.00000  Uiso   1.00
C138   C     0.50000   0.78888   0.46032   0.00000  Uiso   1.00
C139   C     0.50000   0.85897   0.23397   0.00000  Uiso   1.00
N2     N     0.50000   0.89361   0.11596   0.00000  Uiso   1.00
C140   C     0.50000   0.98339   0.57016   0.00000  Uiso   1.00
C141   C     0.50000   0.92066   0.83077   0.00000  Uiso   1.00
C142   C     0.50000   0.88593   0.95482   0.00000  Uiso   1.00
H130   H     0.50000   0.85344   0.90996   0.00000  Uiso   1.00
C143   C     0.00000   0.21112   0.96032   0.00000  Uiso   1.00
C144   C     0.00000   0.14103   0.73397   0.00000  Uiso   1.00
N3     N     0.00000   0.10639   0.61596   0.00000  Uiso   1.00
C145   C     0.00000   0.01661   0.07016   0.00000  Uiso   1.00
C146   C     0.00000   0.07934   0.33077   0.00000  Uiso   1.00
C147   C     0.00000   0.11407   0.45482   0.00000  Uiso   1.00
H131   H     0.00000   0.14656   0.40996   0.00000  Uiso   1.00
C148   C     0.50000   0.71112   0.46032   0.00000  Uiso   1.00
C149   C     0.50000   0.64103   0.23397   0.00000  Uiso   1.00
N4     N     0.50000   0.60639   0.11596   0.00000  Uiso   1.00
C150   C     0.50000   0.51661   0.57016   0.00000  Uiso   1.00
C151   C     0.50000   0.57934   0.83077   0.00000  Uiso   1.00
C152   C     0.50000   0.61407   0.95482   0.00000  Uiso   1.00
H132   H     0.50000   0.64656   0.90996   0.00000  Uiso   1.00
C153   C     0.00000   0.78888   0.03968   0.00000  Uiso   1.00
C154   C     0.00000   0.85897   0.26603   0.00000  Uiso   1.00
N5     N     0.00000   0.89361   0.38404   0.00000  Uiso   1.00
C155   C     0.00000   0.98339   0.92984   0.00000  Uiso   1.00
C156   C     0.00000   0.92066   0.66923   0.00000  Uiso   1.00
C157   C     0.00000   0.88593   0.54518   0.00000  Uiso   1.00
H133   H     0.00000   0.85344   0.59004   0.00000  Uiso   1.00
C158   C     0.50000   0.28888   0.53968   0.00000  Uiso   1.00
C159   C     0.50000   0.35897   0.76603   0.00000  Uiso   1.00
N6     N     0.50000   0.39361   0.88404   0.00000  Uiso   1.00
C160   C     0.50000   0.48339   0.42984   0.00000  Uiso   1.00
C161   C     0.50000   0.42066   0.16923   0.00000  Uiso   1.00
C162   C     0.50000   0.38593   0.04518   0.00000  Uiso   1.00
H134   H     0.50000   0.35344   0.09004   0.00000  Uiso   1.00
C163   C     0.00000   0.71112   0.03968   0.00000  Uiso   1.00
C164   C     0.00000   0.64103   0.26603   0.00000  Uiso   1.00
N7     N     0.00000   0.60639   0.38404   0.00000  Uiso   1.00
C165   C     0.00000   0.51661   0.92984   0.00000  Uiso   1.00
C166   C     0.00000   0.57934   0.66923   0.00000  Uiso   1.00
C167   C     0.00000   0.61407   0.54518   0.00000  Uiso   1.00
H135   H     0.00000   0.64656   0.59004   0.00000  Uiso   1.00
C168   C     0.50000   0.21112   0.53968   0.00000  Uiso   1.00
C169   C     0.50000   0.14103   0.76603   0.00000  Uiso   1.00
N8     N     0.50000   0.10639   0.88404   0.00000  Uiso   1.00
C170   C     0.50000   0.01661   0.42984   0.00000  Uiso   1.00
C171   C     0.50000   0.07934   0.16923   0.00000  Uiso   1.00
C172   C     0.50000   0.11407   0.04518   0.00000  Uiso   1.00
H136   H     0.50000   0.14656   0.09004   0.00000  Uiso   1.00
C173   C     0.95630   0.25000   0.20359   0.00000  Uiso   1.00
C174   C     0.88105   0.25000   0.44477   0.00000  Uiso   1.00
N9     N     0.84492   0.25000   0.57269   0.00000  Uiso   1.00
C175   C     0.76529   0.25000   0.17038   0.00000  Uiso   1.00
C176   C     0.82385   0.25000   0.87545   0.00000  Uiso   1.00
C177   C     0.85851   0.25000   0.73637   0.00000  Uiso   1.00
H137   H     0.60414   0.25000   0.74007   0.00000  Uiso   1.00
C178   C     0.45630   0.75000   0.70359   0.00000  Uiso   1.00
C179   C     0.38105   0.75000   0.94477   0.00000  Uiso   1.00
N10    N     0.34492   0.75000   0.07269   0.00000  Uiso   1.00
C180   C     0.26529   0.75000   0.67038   0.00000  Uiso   1.00
C181   C     0.32385   0.75000   0.37545   0.00000  Uiso   1.00
C182   C     0.35851   0.75000   0.23637   0.00000  Uiso   1.00
H138   H     0.10414   0.75000   0.24007   0.00000  Uiso   1.00
C183   C     0.04370   0.25000   0.20359   0.00000  Uiso   1.00
C184   C     0.11895   0.25000   0.44477   0.00000  Uiso   1.00
N11    N     0.15508   0.25000   0.57269   0.00000  Uiso   1.00
C185   C     0.23471   0.25000   0.17038   0.00000  Uiso   1.00
C186   C     0.17615   0.25000   0.87545   0.00000  Uiso   1.00
C187   C     0.14149   0.25000   0.73637   0.00000  Uiso   1.00
H139   H     0.39586   0.25000   0.74007   0.00000  Uiso   1.00
C188   C     0.54370   0.75000   0.70359   0.00000  Uiso   1.00
C189   C     0.61895   0.75000   0.94477   0.00000  Uiso   1.00
N12    N     0.65508   0.75000   0.07269   0.00000  Uiso   1.00
C190   C     0.73471   0.75000   0.67038   0.00000  Uiso   1.00
C191   C     0.67615   0.75000   0.37545   0.00000  Uiso   1.00
C192   C     0.64149   0.75000   0.23637   0.00000  Uiso   1.00
H140   H     0.89586   0.75000   0.24007   0.00000  Uiso   1.00
C193   C     0.04370   0.75000   0.79641   0.00000  Uiso   1.00
C194   C     0.11895   0.75000   0.55523   0.00000  Uiso   1.00
N13    N     0.15508   0.75000   0.42731   0.00000  Uiso   1.00
C195   C     0.23471   0.75000   0.82962   0.00000  Uiso   1.00
C196   C     0.17615   0.75000   0.12455   0.00000  Uiso   1.00
C197   C     0.14149   0.75000   0.26363   0.00000  Uiso   1.00
H141   H     0.39586   0.75000   0.25993   0.00000  Uiso   1.00
C198   C     0.54370   0.25000   0.29641   0.00000  Uiso   1.00
C199   C     0.61895   0.25000   0.05523   0.00000  Uiso   1.00
N14    N     0.65508   0.25000   0.92731   0.00000  Uiso   1.00
C200   C     0.73471   0.25000   0.32962   0.00000  Uiso   1.00
C201   C     0.67615   0.25000   0.62455   0.00000  Uiso   1.00
C202   C     0.64149   0.25000   0.76363   0.00000  Uiso   1.00
H142   H     0.89586   0.25000   0.75993   0.00000  Uiso   1.00
C203   C     0.95630   0.75000   0.79641   0.00000  Uiso   1.00
C204   C     0.88105   0.75000   0.55523   0.00000  Uiso   1.00
N15    N     0.84492   0.75000   0.42731   0.00000  Uiso   1.00
C205   C     0.76529   0.75000   0.82962   0.00000  Uiso   1.00
C206   C     0.82385   0.75000   0.12455   0.00000  Uiso   1.00
C207   C     0.85851   0.75000   0.26363   0.00000  Uiso   1.00
H143   H     0.60414   0.75000   0.25993   0.00000  Uiso   1.00
C208   C     0.45630   0.25000   0.29641   0.00000  Uiso   1.00
C209   C     0.38105   0.25000   0.05523   0.00000  Uiso   1.00
N16    N     0.34492   0.25000   0.92731   0.00000  Uiso   1.00
C210   C     0.26529   0.25000   0.32962   0.00000  Uiso   1.00
C211   C     0.32385   0.25000   0.62455   0.00000  Uiso   1.00
C212   C     0.35851   0.25000   0.76363   0.00000  Uiso   1.00
H144   H     0.10414   0.25000   0.75993   0.00000  Uiso   1.00
loop_
_geom_bond_atom_site_label_1
_geom_bond_atom_site_label_2
_geom_bond_distance
_geom_bond_site_symmetry_2
_ccdc_geom_bond_type
C1     C2      1.397   .     S
C1     C133    1.413   .     S
C1     H1      1.080   .     S
C2     C134    1.397   .     S
C2     H2      1.083   .     S
C3     C4      1.398   .     S
C3     H3      1.079   .     S
C3     C173    1.414   .     S
C4     H4      1.083   .     S
C4     C174    1.397   .     S
C5     C136    1.394   .     S
C5     H5      1.084   .     S
C5     C6      1.398   .     S
C6     C135    1.419   .     S
C6     H6      1.076   .     S
C7     C176    1.394   .     S
C7     H7      1.084   .     S
C8     H8      1.075   .     S
C8     C175    1.419   .     S
C9     C10     1.397   .     S
C9     H9      1.080   .     S
C9     C138    1.413   .     S
C10    C139    1.397   .     S
C10    H10     1.083   .     S
C11    C12     1.398   .     S
C11    H11     1.079   .     S
C11    C178    1.414   .     S
C12    C179    1.397   .     S
C12    H12     1.083   .     S
C13    C141    1.394   .     S
C13    H13     1.084   .     S
C13    C14     1.398   .     S
C14    C140    1.419   .     S
C14    H14     1.076   .     S
C15    H15     1.084   .     S
C15    C181    1.394   .     S
C15    C16     1.398   .     S
C16    H16     1.075   .     S
C16    C180    1.419   .     S
C17    C18     1.397   .     S
C17    H17     1.080   .     S
C18    H18     1.083   .     S
C19    H19     1.079   .     S
C19    C20     1.398   .     S
C19    C183    1.414   .     S
C20    H20     1.083   .     S
C20    C184    1.397   .     S
C21    H21     1.084   .     S
C21    C22     1.398   .     S
C22    H22     1.076   .     S
C23    H23     1.084   .     S
C23    C186    1.394   .     S
C24    H24     1.075   .     S
C24    C185    1.419   .     S
C25    H25     1.080   .     S
C25    C26     1.397   .     S
C25    C148    1.413   .     S
C26    C149    1.397   .     S
C26    H26     1.083   .     S
C27    C188    1.414   .     S
C27    C28     1.398   .     S
C27    H27     1.079   .     S
C28    H28     1.083   .     S
C28    C189    1.397   .     S
C29    C151    1.394   .     S
C29    H29     1.084   .     S
C29    C30     1.398   .     S
C30    C150    1.419   .     S
C30    H30     1.076   .     S
C31    C191    1.394   .     S
C31    H31     1.084   .     S
C31    C32     1.398   .     S
C32    C190    1.419   .     S
C32    H32     1.075   .     S
C33    C34     1.397   .     S
C33    H33     1.080   .     S
C34    H34     1.083   .     S
C35    H35     1.079   .     S
C35    C193    1.414   .     S
C35    C36     1.398   .     S
C36    H36     1.083   .     S
C36    C194    1.397   .     S
C37    H37     1.084   .     S
C37    C38     1.398   .     S
C38    H38     1.076   .     S
C39    H39     1.084   .     S
C39    C196    1.394   .     S
C40    C195    1.419   .     S
C40    H40     1.075   .     S
C41    C158    1.413   .     S
C41    H41     1.080   .     S
C41    C42     1.397   .     S
C42    C159    1.397   .     S
C42    H42     1.083   .     S
C43    H43     1.079   .     S
C43    C198    1.414   .     S
C43    C44     1.398   .     S
C44    H44     1.083   .     S
C44    C199    1.397   .     S
C45    C46     1.398   .     S
C45    C161    1.394   .     S
C45    H45     1.084   .     S
C46    C160    1.419   .     S
C46    H46     1.076   .     S
C47    H47     1.084   .     S
C47    C201    1.394   .     S
C47    C48     1.398   .     S
C48    H48     1.075   .     S
C48    C200    1.419   .     S
C49    C163    1.413   .     S
C49    H49     1.080   .     S
C49    C50     1.397   .     S
C50    C164    1.397   .     S
C50    H50     1.083   .     S
C51    C203    1.414   .     S
C51    H51     1.079   .     S
C51    C52     1.398   .     S
C52    C204    1.397   .     S
C52    H52     1.083   .     S
C53    C54     1.398   .     S
C53    H53     1.084   .     S
C53    C166    1.394   .     S
C54    C165    1.419   .     S
C54    H54     1.076   .     S
C55    C206    1.394   .     S
C55    H55     1.084   .     S
C56    H56     1.075   .     S
C56    C205    1.419   .     S
C57    C168    1.413   .     S
C57    H57     1.080   .     S
C57    C58     1.397   .     S
C58    C169    1.397   .     S
C58    H58     1.083   .     S
C59    H59     1.079   .     S
C59    C208    1.414   .     S
C59    C60     1.398   .     S
C60    H60     1.083   .     S
C60    C209    1.397   .     S
C61    C62     1.398   .     S
C61    C171    1.394   .     S
C61    H61     1.084   .     S
C62    C170    1.419   .     S
C62    H62     1.076   .     S
C63    H63     1.084   .     S
C63    C211    1.394   .     S
C63    C64     1.398   .     S
C64    H64     1.075   .     S
C64    C210    1.419   .     S
C65    H65     1.080   .     S
C65    C66     1.397   .     S
C66    H66     1.083   .     S
C67    C193    1.414   .     S
C67    H67     1.079   .     S
C67    C68     1.398   .     S
C68    C194    1.397   .     S
C68    H68     1.083   .     S
C69    C70     1.398   .     S
C69    H69     1.084   .     S
C70    H70     1.076   .     S
C71    C196    1.394   .     S
C71    H71     1.084   .     S
C72    H72     1.075   .     S
C72    C195    1.419   .     S
C73    C168    1.413   .     S
C73    H73     1.080   .     S
C73    C74     1.397   .     S
C74    C169    1.397   .     S
C74    H74     1.083   .     S
C75    H75     1.079   .     S
C75    C198    1.414   .     S
C75    C76     1.398   .     S
C76    H76     1.083   .     S
C76    C199    1.397   .     S
C77    C78     1.398   .     S
C77    C171    1.394   .     S
C77    H77     1.084   .     S
C78    C170    1.419   .     S
C78    H78     1.076   .     S
C79    H79     1.084   .     S
C79    C201    1.394   .     S
C79    C80     1.398   .     S
C80    H80     1.075   .     S
C80    C200    1.419   .     S
C81    C82     1.397   .     S
C81    H81     1.080   .     S
C81    C153    1.413   .     S
C82    C154    1.397   .     S
C82    H82     1.083   .     S
C83    H83     1.079   .     S
C83    C203    1.414   .     S
C83    C84     1.398   .     S
C84    H84     1.083   .     S
C84    C204    1.397   .     S
C85    H85     1.084   .     S
C85    C86     1.398   .     S
C85    C156    1.394   .     S
C86    C155    1.419   .     S
C86    H86     1.076   .     S
C87    H87     1.084   .     S
C87    C206    1.394   .     S
C88    C205    1.419   .     S
C88    H88     1.075   .     S
C89    C158    1.413   .     S
C89    H89     1.080   .     S
C89    C90     1.397   .     S
C90    C159    1.397   .     S
C90    H90     1.083   .     S
C91    H91     1.079   .     S
C91    C208    1.414   .     S
C91    C92     1.398   .     S
C92    H92     1.083   .     S
C92    C209    1.397   .     S
C93    C94     1.398   .     S
C93    C161    1.394   .     S
C93    H93     1.084   .     S
C94    C160    1.419   .     S
C94    H94     1.076   .     S
C95    H95     1.084   .     S
C95    C211    1.394   .     S
C95    C96     1.398   .     S
C96    H96     1.075   .     S
C96    C210    1.419   .     S
C97    C98     1.397   .     S
C97    C143    1.413   .     S
C97    H97     1.080   .     S
C98    C144    1.397   .     S
C98    H98     1.083   .     S
C99    C100    1.398   .     S
C99    H99     1.079   .     S
C99    C173    1.414   .     S
C100   H100    1.083   .     S
C100   C174    1.397   .     S
C101   C146    1.394   .     S
C101   H101    1.084   .     S
C101   C102    1.398   .     S
C102   C145    1.419   .     S
C102   H102    1.076   .     S
C103   H103    1.084   .     S
C103   C176    1.394   .     S
C104   H104    1.075   .     S
C104   C175    1.419   .     S
C105   H105    1.080   .     S
C105   C106    1.397   .     S
C105   C148    1.413   .     S
C106   C149    1.397   .     S
C106   H106    1.083   .     S
C107   C108    1.398   .     S
C107   C178    1.414   .     S
C107   H107    1.079   .     S
C108   H108    1.083   .     S
C108   C179    1.397   .     S
C109   C151    1.394   .     S
C109   H109    1.084   .     S
C109   C110    1.398   .     S
C110   C150    1.419   .     S
C110   H110    1.076   .     S
C111   C181    1.394   .     S
C111   H111    1.084   .     S
C111   C112    1.398   .     S
C112   C180    1.419   .     S
C112   H112    1.075   .     S
C113   C114    1.397   .     S
C113   H113    1.080   .     S
C114   H114    1.083   .     S
C115   H115    1.079   .     S
C115   C116    1.398   .     S
C115   C183    1.414   .     S
C116   H116    1.083   .     S
C116   C184    1.397   .     S
C117   H117    1.084   .     S
C117   C118    1.398   .     S
C118   H118    1.076   .     S
C119   C186    1.394   .     S
C119   H119    1.084   .     S
C120   H120    1.075   .     S
C120   C185    1.419   .     S
C121   C122    1.397   .     S
C121   H121    1.080   .     S
C121   C138    1.413   .     S
C122   C139    1.397   .     S
C122   H122    1.083   .     S
C123   H123    1.079   .     S
C123   C124    1.398   .     S
C123   C188    1.414   .     S
C124   C189    1.397   .     S
C124   H124    1.083   .     S
C125   C141    1.394   .     S
C125   H125    1.084   .     S
C125   C126    1.398   .     S
C126   C140    1.419   .     S
C126   H126    1.076   .     S
C127   H127    1.084   .     S
C127   C191    1.394   .     S
C127   C128    1.398   .     S
C128   H128    1.075   .     S
C128   C190    1.419   .     S
C129   C183    1.553   .     S
C130   C138    1.549   .     S
C130   C148    1.549   .     S
C130   C178    1.553   .     S
C130   C188    1.553   .     S
C131   C193    1.553   .     S
C132   C208    1.553   .     S
C132   C198    1.553   .     S
C132   C158    1.549   .     S
C132   C168    1.549   .     S
C134   N1      1.429   .     S
N1     C137    1.294   .     S
C136   C137    1.463   .     S
C137   H129    1.077   .     S
C139   N2      1.429   .     S
C141   C142    1.463   .     S
C142   H130    1.077   .     S
C144   N3      1.429   .     S
N3     C147    1.294   .     S
C146   C147    1.463   .     S
C147   H131    1.077   .     S
C149   N4      1.429   .     S
C150   C160    1.519   .     S
C151   C152    1.463   .     S
C152   H132    1.077   .     S
C154   N5      1.429   .     S
N5     C157    1.294   .     S
C156   C157    1.463   .     S
C157   H133    1.077   .     S
C159   N6      1.429   .     S
C161   C162    1.463   .     S
C162   H134    1.077   .     S
C164   N7      1.429   .     S
N7     C167    1.294   .     S
C166   C167    1.463   .     S
C167   H135    1.077   .     S
C169   N8      1.429   .     S
C171   C172    1.463   .     S
C172   H136    1.077   .     S
C174   N9      1.427   .     S
N9     C177    1.346   .     S
C175   C200    1.519   .     S
C176   C177    1.463   .     S
C177   H142    1.060   .     S
H137   C202    1.060   .     S
N10    C182    1.346   .     S
C180   C195    1.519   .     S
C181   C182    1.463   .     S
C182   H141    1.060   .     S
H138   C197    1.060   .     S
C184   N11     1.427   .     S
N11    C187    1.346   .     S
C185   C210    1.519   .     S
C186   C187    1.463   .     S
C187   H144    1.060   .     S
H139   C212    1.060   .     S
N12    C192    1.346   .     S
C190   C205    1.519   .     S
C191   C192    1.463   .     S
C192   H143    1.060   .     S
H140   C207    1.060   .     S
C194   N13     1.427   .     S
N13    C197    1.346   .     S
C196   C197    1.463   .     S
N14    C202    1.346   .     S
C201   C202    1.463   .     S
C204   N15     1.427   .     S
N15    C207    1.346   .     S
C206   C207    1.463   .     S
N16    C212    1.346   .     S
C211   C212    1.463   .     S
