data_COF-18A
_audit_creation_date              2016-12-13
_audit_creation_method            'Materials Studio'
_symmetry_space_group_name_H-M    'P1'
_symmetry_Int_Tables_number       1
_symmetry_cell_setting            triclinic
loop_
_symmetry_equiv_pos_as_xyz
  x,y,z
_cell_length_a                    21.4237
_cell_length_b                    21.4237
_cell_length_c                    3.5655
_cell_angle_alpha                 90.0000
_cell_angle_beta                  90.0000
_cell_angle_gamma                 120.0000
loop_
_atom_site_label
_atom_site_type_symbol
_atom_site_fract_x
_atom_site_fract_y
_atom_site_fract_z
_atom_site_U_iso_or_equiv
_atom_site_adp_type
_atom_site_occupancy
C1     C     0.56718  -0.00000   0.50000   0.00000  Uiso   1.00
C2     C    -0.00000   0.56718   0.50000   0.00000  Uiso   1.00
C3     C     0.43282   0.43282   0.50000   0.00000  Uiso   1.00
C4     C     0.43282  -0.00000   0.50000   0.00000  Uiso   1.00
C5     C    -0.00000   0.43282   0.50000   0.00000  Uiso   1.00
C6     C     0.56718   0.56718   0.50000   0.00000  Uiso   1.00
C7     C     0.56502   0.06441   0.50000   0.00000  Uiso   1.00
C8     C     0.93559   0.50061   0.50000   0.00000  Uiso   1.00
C9     C     0.49939   0.43498   0.50000   0.00000  Uiso   1.00
C10    C     0.43498   0.93559   0.50000   0.00000  Uiso   1.00
C11    C     0.06441   0.49939   0.50000   0.00000  Uiso   1.00
C12    C     0.50061   0.56502   0.50000   0.00000  Uiso   1.00
C13    C     0.06441   0.56502   0.50000   0.00000  Uiso   1.00
C14    C     0.50061   0.93559   0.50000   0.00000  Uiso   1.00
C15    C     0.43498   0.49939   0.50000   0.00000  Uiso   1.00
C16    C     0.93559   0.43498   0.50000   0.00000  Uiso   1.00
C17    C     0.49939   0.06441   0.50000   0.00000  Uiso   1.00
C18    C     0.56502   0.50061   0.50000   0.00000  Uiso   1.00
O1     O     0.62128   0.13215   0.50000   0.00000  Uiso   1.00
O2     O     0.86785   0.48912   0.50000   0.00000  Uiso   1.00
O3     O     0.51088   0.37872   0.50000   0.00000  Uiso   1.00
O4     O     0.37872   0.86785   0.50000   0.00000  Uiso   1.00
O5     O     0.13215   0.51088   0.50000   0.00000  Uiso   1.00
O6     O     0.48912   0.62128   0.50000   0.00000  Uiso   1.00
O7     O     0.13215   0.62128   0.50000   0.00000  Uiso   1.00
O8     O     0.48912   0.86785   0.50000   0.00000  Uiso   1.00
O9     O     0.37872   0.51088   0.50000   0.00000  Uiso   1.00
O10    O     0.86785   0.37872   0.50000   0.00000  Uiso   1.00
O11    O     0.51088   0.13215   0.50000   0.00000  Uiso   1.00
O12    O     0.62128   0.48912   0.50000   0.00000  Uiso   1.00
C19    C     0.62842   0.25685   0.50000   0.00000  Uiso   1.00
C20    C     0.74315   0.37158   0.50000   0.00000  Uiso   1.00
C21    C     0.62842   0.37158   0.50000   0.00000  Uiso   1.00
C22    C     0.37158   0.74315   0.50000   0.00000  Uiso   1.00
C23    C     0.25685   0.62842   0.50000   0.00000  Uiso   1.00
C24    C     0.37158   0.62842   0.50000   0.00000  Uiso   1.00
B1     B     0.58827   0.17653   0.50000   0.00000  Uiso   1.00
B2     B     0.82347   0.41173   0.50000   0.00000  Uiso   1.00
B3     B     0.58827   0.41173   0.50000   0.00000  Uiso   1.00
B4     B     0.41173   0.82347   0.50000   0.00000  Uiso   1.00
B5     B     0.17653   0.58827   0.50000   0.00000  Uiso   1.00
B6     B     0.41173   0.58827   0.50000   0.00000  Uiso   1.00
C25    C     0.29543   0.59085   0.50000   0.00000  Uiso   1.00
C26    C     0.40915   0.70457   0.50000   0.00000  Uiso   1.00
C27    C     0.29543   0.70457   0.50000   0.00000  Uiso   1.00
C28    C     0.70457   0.40915   0.50000   0.00000  Uiso   1.00
C29    C     0.59085   0.29543   0.50000   0.00000  Uiso   1.00
C30    C     0.70457   0.29543   0.50000   0.00000  Uiso   1.00
H1     H     0.38529   0.38529   0.50000   0.00000  Uiso   1.00
H2     H     0.61471  -0.00000   0.50000   0.00000  Uiso   1.00
H3     H    -0.00000   0.61471   0.50000   0.00000  Uiso   1.00
H4     H     0.61471   0.61471   0.50000   0.00000  Uiso   1.00
H5     H     0.38529  -0.00000   0.50000   0.00000  Uiso   1.00
H6     H     0.00000   0.38529   0.50000   0.00000  Uiso   1.00
H7     H     0.46470   0.73235   0.50000   0.00000  Uiso   1.00
H8     H     0.26765   0.73235   0.50000   0.00000  Uiso   1.00
H9     H     0.26765   0.53530   0.50000   0.00000  Uiso   1.00
H10    H     0.53530   0.26765   0.50000   0.00000  Uiso   1.00
H11    H     0.73235   0.26765   0.50000   0.00000  Uiso   1.00
H12    H     0.73235   0.46470   0.50000   0.00000  Uiso   1.00
loop_
_geom_bond_atom_site_label_1
_geom_bond_atom_site_label_2
_geom_bond_distance
_geom_bond_site_symmetry_2
_ccdc_geom_bond_type
C1     C7      1.404   .     S
C1     H2      1.018   .     S
C2     C13     1.404   .     S
C2     H3      1.018   .     S
C3     H1      1.018   .     S
C3     C9      1.404   .     S
C3     C15     1.404   .     S
C4     C17     1.404   .     S
C4     H5      1.018   .     S
C5     H6      1.018   .     S
C5     C11     1.404   .     S
C6     C18     1.404   .     S
C6     C12     1.404   .     S
C6     H4      1.018   .     S
C7     C17     1.406   .     S
C7     O1      1.345   .     S
C8     O2      1.345   .     S
C8     C16     1.406   .     S
C9     C18     1.406   .     S
C9     O3      1.345   .     S
C10    O4      1.345   .     S
C10    C14     1.406   .     S
C11    C13     1.406   .     S
C11    O5      1.345   .     S
C12    C15     1.406   .     S
C12    O6      1.345   .     S
C13    O7      1.345   .     S
C14    O8      1.345   .     S
C15    O9      1.345   .     S
C16    O10     1.345   .     S
C17    O11     1.345   .     S
C18    O12     1.345   .     S
O1     B1      1.441   .     S
O2     B2      1.441   .     S
O3     B3      1.441   .     S
O4     B4      1.441   .     S
O5     B5      1.441   .     S
O6     B6      1.441   .     S
O7     B5      1.441   .     S
O8     B4      1.441   .     S
O9     B6      1.441   .     S
O10    B2      1.441   .     S
O11    B1      1.441   .     S
O12    B3      1.441   .     S
C19    C30     1.413   .     S
C19    C29     1.413   .     S
C19    B1      1.490   .     S
C20    C30     1.413   .     S
C20    C28     1.413   .     S
C20    B2      1.490   .     S
C21    C29     1.413   .     S
C21    B3      1.490   .     S
C21    C28     1.413   .     S
C22    C26     1.413   .     S
C22    C27     1.413   .     S
C22    B4      1.490   .     S
C23    B5      1.490   .     S
C23    C25     1.413   .     S
C23    C27     1.413   .     S
C24    C25     1.413   .     S
C24    B6      1.490   .     S
C24    C26     1.413   .     S
C25    H9      1.031   .     S
C26    H7      1.031   .     S
C27    H8      1.031   .     S
C28    H12     1.031   .     S
C29    H10     1.031   .     S
C30    H11     1.031   .     S
