data_COF-42-gra
_audit_creation_date              2016-12-13
_audit_creation_method            'Materials Studio'
_symmetry_space_group_name_H-M    'P1'
_symmetry_Int_Tables_number       1
_symmetry_cell_setting            triclinic
loop_
_symmetry_equiv_pos_as_xyz
  x,y,z
_cell_length_a                    30.4760
_cell_length_b                    30.4760
_cell_length_c                    6.5811
_cell_angle_alpha                 90.0000
_cell_angle_beta                  90.0000
_cell_angle_gamma                 120.0000
loop_
_atom_site_label
_atom_site_type_symbol
_atom_site_fract_x
_atom_site_fract_y
_atom_site_fract_z
_atom_site_U_iso_or_equiv
_atom_site_adp_type
_atom_site_occupancy
H1     H     0.02830   0.29000   0.61400   0.00000  Uiso   1.00
H2     H     0.94580   0.27080   0.88860   0.00000  Uiso   1.00
H3     H     0.68180   0.03060   0.61150   0.00000  Uiso   1.00
H4     H     0.61180   0.04960   0.88750   0.00000  Uiso   1.00
H5     H     0.71000   0.73830   0.61400   0.00000  Uiso   1.00
H6     H     0.72920   0.67500   0.88860   0.00000  Uiso   1.00
H7     H     0.96940   0.65120   0.61150   0.00000  Uiso   1.00
H8     H     0.95040   0.56220   0.88750   0.00000  Uiso   1.00
H9     H     0.26170   0.97170   0.61400   0.00000  Uiso   1.00
H10    H     0.32500   0.05420   0.88860   0.00000  Uiso   1.00
H11    H     0.34880   0.31820   0.61150   0.00000  Uiso   1.00
H12    H     0.43780   0.38820   0.88750   0.00000  Uiso   1.00
H13    H     0.97170   0.71000   0.11400   0.00000  Uiso   1.00
H14    H     0.05420   0.72920   0.38860   0.00000  Uiso   1.00
H15    H     0.31820   0.96940   0.11150   0.00000  Uiso   1.00
H16    H     0.38820   0.95040   0.38750   0.00000  Uiso   1.00
H17    H     0.29000   0.26170   0.11400   0.00000  Uiso   1.00
H18    H     0.27080   0.32500   0.38860   0.00000  Uiso   1.00
H19    H     0.03060   0.34880   0.11150   0.00000  Uiso   1.00
H20    H     0.04960   0.43780   0.38750   0.00000  Uiso   1.00
H21    H     0.73830   0.02830   0.11400   0.00000  Uiso   1.00
H22    H     0.67500   0.94580   0.38860   0.00000  Uiso   1.00
H23    H     0.65120   0.68180   0.11150   0.00000  Uiso   1.00
H24    H     0.56220   0.61180   0.38750   0.00000  Uiso   1.00
H25    H     0.97170   0.71000   0.38600   0.00000  Uiso   1.00
H26    H     0.05420   0.72920   0.11140   0.00000  Uiso   1.00
H27    H     0.31820   0.96940   0.38850   0.00000  Uiso   1.00
H28    H     0.38820   0.95040   0.11250   0.00000  Uiso   1.00
H29    H     0.29000   0.26170   0.38600   0.00000  Uiso   1.00
H30    H     0.27080   0.32500   0.11140   0.00000  Uiso   1.00
H31    H     0.03060   0.34880   0.38850   0.00000  Uiso   1.00
H32    H     0.04960   0.43780   0.11250   0.00000  Uiso   1.00
H33    H     0.73830   0.02830   0.38600   0.00000  Uiso   1.00
H34    H     0.67500   0.94580   0.11140   0.00000  Uiso   1.00
H35    H     0.65120   0.68180   0.38850   0.00000  Uiso   1.00
H36    H     0.56220   0.61180   0.11250   0.00000  Uiso   1.00
H37    H     0.02830   0.29000   0.88600   0.00000  Uiso   1.00
H38    H     0.94580   0.27080   0.61140   0.00000  Uiso   1.00
H39    H     0.68180   0.03060   0.88850   0.00000  Uiso   1.00
H40    H     0.61180   0.04960   0.61250   0.00000  Uiso   1.00
H41    H     0.71000   0.73830   0.88600   0.00000  Uiso   1.00
H42    H     0.72920   0.67500   0.61140   0.00000  Uiso   1.00
H43    H     0.96940   0.65120   0.88850   0.00000  Uiso   1.00
H44    H     0.95040   0.56220   0.61250   0.00000  Uiso   1.00
H45    H     0.26170   0.97170   0.88600   0.00000  Uiso   1.00
H46    H     0.32500   0.05420   0.61140   0.00000  Uiso   1.00
H47    H     0.34880   0.31820   0.88850   0.00000  Uiso   1.00
H48    H     0.43780   0.38820   0.61250   0.00000  Uiso   1.00
H49    H     0.86440   0.24330   0.75000   0.00000  Uiso   1.00
H50    H     0.76370   0.05660   0.75000   0.00000  Uiso   1.00
H51    H     0.94300   0.14220   0.75000   0.00000  Uiso   1.00
H52    H     0.00670   0.11880   0.75000   0.00000  Uiso   1.00
H53    H     0.06840   0.08990   0.75000   0.00000  Uiso   1.00
H54    H     0.62790   0.20170   0.75000   0.00000  Uiso   1.00
H55    H     0.74730   0.33180   0.75000   0.00000  Uiso   1.00
H56    H     0.83840   0.52280   0.75000   0.00000  Uiso   1.00
H57    H     0.01190   0.23290   0.75000   0.00000  Uiso   1.00
H58    H     0.59490   0.99190   0.75000   0.00000  Uiso   1.00
C1     C     0.76250   0.42570   0.75000   0.00000  Uiso   1.00
C2     C     0.78670   0.55390   0.75000   0.00000  Uiso   1.00
C3     C     0.82140   0.61020   0.75000   0.00000  Uiso   1.00
C4     C     0.87500   0.63490   0.75000   0.00000  Uiso   1.00
C5     C     0.90260   0.68820   0.75000   0.00000  Uiso   1.00
C6     C     0.87860   0.71780   0.75000   0.00000  Uiso   1.00
C7     C     0.79750   0.63970   0.75000   0.00000  Uiso   1.00
C8     C     0.82470   0.69250   0.75000   0.00000  Uiso   1.00
C9     C     0.91270   0.77460   0.75000   0.00000  Uiso   1.00
C10    C     0.92050   0.89700   0.75000   0.00000  Uiso   1.00
C11    C     0.00840   0.26750   0.75000   0.00000  Uiso   1.00
C12    C     0.67500   0.04700   0.75000   0.00000  Uiso   1.00
C13    C     0.61990   0.03370   0.75000   0.00000  Uiso   1.00
N1     N     0.76090   0.46690   0.75000   0.00000  Uiso   1.00
N2     N     0.80140   0.51610   0.75000   0.00000  Uiso   1.00
N3     N     0.89560   0.81060   0.75000   0.00000  Uiso   1.00
N4     N     0.93190   0.86170   0.75000   0.00000  Uiso   1.00
O1     O     0.74100   0.53800   0.75000   0.00000  Uiso   1.00
O2     O     0.95850   0.79180   0.75000   0.00000  Uiso   1.00
O3     O     0.70660   0.10090   0.75000   0.00000  Uiso   1.00
O4     O     0.79940   0.72050   0.75000   0.00000  Uiso   1.00
H59    H     0.75670   0.62110   0.75000   0.00000  Uiso   1.00
H60    H     0.94340   0.70710   0.75000   0.00000  Uiso   1.00
H61    H     0.85780   0.80080   0.75000   0.00000  Uiso   1.00
H62    H     0.88120   0.88790   0.75000   0.00000  Uiso   1.00
H63    H     0.91010   0.97850   0.75000   0.00000  Uiso   1.00
H64    H     0.79830   0.42620   0.75000   0.00000  Uiso   1.00
H65    H     0.66820   0.41550   0.75000   0.00000  Uiso   1.00
H66    H     0.47720   0.31560   0.75000   0.00000  Uiso   1.00
H67    H     0.76710   0.77900   0.75000   0.00000  Uiso   1.00
H68    H     0.00810   0.60300   0.75000   0.00000  Uiso   1.00
C14    C     0.57430   0.33680   0.75000   0.00000  Uiso   1.00
C15    C     0.44610   0.23280   0.75000   0.00000  Uiso   1.00
C16    C     0.38980   0.21120   0.75000   0.00000  Uiso   1.00
C17    C     0.36510   0.24010   0.75000   0.00000  Uiso   1.00
C18    C     0.31180   0.21440   0.75000   0.00000  Uiso   1.00
C19    C     0.28220   0.16080   0.75000   0.00000  Uiso   1.00
C20    C     0.36030   0.15780   0.75000   0.00000  Uiso   1.00
C21    C     0.30750   0.13220   0.75000   0.00000  Uiso   1.00
C22    C     0.22540   0.13810   0.75000   0.00000  Uiso   1.00
C23    C     0.10300   0.02350   0.75000   0.00000  Uiso   1.00
C24    C     0.73250   0.74090   0.75000   0.00000  Uiso   1.00
C25    C     0.95300   0.62800   0.75000   0.00000  Uiso   1.00
C26    C     0.96630   0.58620   0.75000   0.00000  Uiso   1.00
N5     N     0.53310   0.29400   0.75000   0.00000  Uiso   1.00
N6     N     0.48390   0.28530   0.75000   0.00000  Uiso   1.00
N7     N     0.18940   0.08500   0.75000   0.00000  Uiso   1.00
N8     N     0.13830   0.07020   0.75000   0.00000  Uiso   1.00
O5     O     0.46200   0.20300   0.75000   0.00000  Uiso   1.00
O6     O     0.20820   0.16670   0.75000   0.00000  Uiso   1.00
O7     O     0.89910   0.60570   0.75000   0.00000  Uiso   1.00
O8     O     0.27950   0.07890   0.75000   0.00000  Uiso   1.00
H69    H     0.37890   0.13560   0.75000   0.00000  Uiso   1.00
H70    H     0.29290   0.23630   0.75000   0.00000  Uiso   1.00
H71    H     0.19920   0.05700   0.75000   0.00000  Uiso   1.00
H72    H     0.11210   0.99330   0.75000   0.00000  Uiso   1.00
H73    H     0.02150   0.93160   0.75000   0.00000  Uiso   1.00
H74    H     0.57380   0.37210   0.75000   0.00000  Uiso   1.00
H75    H     0.58450   0.25270   0.75000   0.00000  Uiso   1.00
H76    H     0.68440   0.16160   0.75000   0.00000  Uiso   1.00
H77    H     0.22100   0.98810   0.75000   0.00000  Uiso   1.00
H78    H     0.39700   0.40510   0.75000   0.00000  Uiso   1.00
C27    C     0.66320   0.23750   0.75000   0.00000  Uiso   1.00
C28    C     0.76720   0.21330   0.75000   0.00000  Uiso   1.00
C29    C     0.78880   0.17860   0.75000   0.00000  Uiso   1.00
C30    C     0.75990   0.12500   0.75000   0.00000  Uiso   1.00
C31    C     0.78560   0.09740   0.75000   0.00000  Uiso   1.00
C32    C     0.83920   0.12140   0.75000   0.00000  Uiso   1.00
C33    C     0.84220   0.20250   0.75000   0.00000  Uiso   1.00
C34    C     0.86780   0.17530   0.75000   0.00000  Uiso   1.00
C35    C     0.86190   0.08730   0.75000   0.00000  Uiso   1.00
C36    C     0.97650   0.07950   0.75000   0.00000  Uiso   1.00
C37    C     0.25910   0.99160   0.75000   0.00000  Uiso   1.00
C38    C     0.37200   0.32500   0.75000   0.00000  Uiso   1.00
C39    C     0.41380   0.38010   0.75000   0.00000  Uiso   1.00
N9     N     0.70600   0.23910   0.75000   0.00000  Uiso   1.00
N10    N     0.71470   0.19860   0.75000   0.00000  Uiso   1.00
N11    N     0.91500   0.10440   0.75000   0.00000  Uiso   1.00
N12    N     0.92980   0.06810   0.75000   0.00000  Uiso   1.00
O9     O     0.79700   0.25900   0.75000   0.00000  Uiso   1.00
O10    O     0.83330   0.04150   0.75000   0.00000  Uiso   1.00
O11    O     0.39430   0.29340   0.75000   0.00000  Uiso   1.00
O12    O     0.92110   0.20060   0.75000   0.00000  Uiso   1.00
H79    H     0.13560   0.75670   0.25000   0.00000  Uiso   1.00
H80    H     0.23630   0.94340   0.25000   0.00000  Uiso   1.00
H81    H     0.05700   0.85780   0.25000   0.00000  Uiso   1.00
H82    H     0.99330   0.88120   0.25000   0.00000  Uiso   1.00
H83    H     0.93160   0.91010   0.25000   0.00000  Uiso   1.00
H84    H     0.37210   0.79830   0.25000   0.00000  Uiso   1.00
H85    H     0.25270   0.66820   0.25000   0.00000  Uiso   1.00
H86    H     0.16160   0.47720   0.25000   0.00000  Uiso   1.00
H87    H     0.98810   0.76710   0.25000   0.00000  Uiso   1.00
H88    H     0.40510   0.00810   0.25000   0.00000  Uiso   1.00
C40    C     0.23750   0.57430   0.25000   0.00000  Uiso   1.00
C41    C     0.21330   0.44610   0.25000   0.00000  Uiso   1.00
C42    C     0.17860   0.38980   0.25000   0.00000  Uiso   1.00
C43    C     0.12500   0.36510   0.25000   0.00000  Uiso   1.00
C44    C     0.09740   0.31180   0.25000   0.00000  Uiso   1.00
C45    C     0.12140   0.28220   0.25000   0.00000  Uiso   1.00
C46    C     0.20250   0.36030   0.25000   0.00000  Uiso   1.00
C47    C     0.17530   0.30750   0.25000   0.00000  Uiso   1.00
C48    C     0.08730   0.22540   0.25000   0.00000  Uiso   1.00
C49    C     0.07950   0.10300   0.25000   0.00000  Uiso   1.00
C50    C     0.99160   0.73250   0.25000   0.00000  Uiso   1.00
C51    C     0.32500   0.95300   0.25000   0.00000  Uiso   1.00
C52    C     0.38010   0.96630   0.25000   0.00000  Uiso   1.00
N13    N     0.23910   0.53310   0.25000   0.00000  Uiso   1.00
N14    N     0.19860   0.48390   0.25000   0.00000  Uiso   1.00
N15    N     0.10440   0.18940   0.25000   0.00000  Uiso   1.00
N16    N     0.06810   0.13830   0.25000   0.00000  Uiso   1.00
O13    O     0.25900   0.46200   0.25000   0.00000  Uiso   1.00
O14    O     0.04150   0.20820   0.25000   0.00000  Uiso   1.00
O15    O     0.29340   0.89910   0.25000   0.00000  Uiso   1.00
O16    O     0.20060   0.27950   0.25000   0.00000  Uiso   1.00
H89    H     0.24330   0.37890   0.25000   0.00000  Uiso   1.00
H90    H     0.05660   0.29290   0.25000   0.00000  Uiso   1.00
H91    H     0.14220   0.19920   0.25000   0.00000  Uiso   1.00
H92    H     0.11880   0.11210   0.25000   0.00000  Uiso   1.00
H93    H     0.08990   0.02150   0.25000   0.00000  Uiso   1.00
H94    H     0.20170   0.57380   0.25000   0.00000  Uiso   1.00
H95    H     0.33180   0.58450   0.25000   0.00000  Uiso   1.00
H96    H     0.52280   0.68440   0.25000   0.00000  Uiso   1.00
H97    H     0.23290   0.22100   0.25000   0.00000  Uiso   1.00
H98    H     0.99190   0.39700   0.25000   0.00000  Uiso   1.00
C53    C     0.42570   0.66320   0.25000   0.00000  Uiso   1.00
C54    C     0.55390   0.76720   0.25000   0.00000  Uiso   1.00
C55    C     0.61020   0.78880   0.25000   0.00000  Uiso   1.00
C56    C     0.63490   0.75990   0.25000   0.00000  Uiso   1.00
C57    C     0.68820   0.78560   0.25000   0.00000  Uiso   1.00
C58    C     0.71780   0.83920   0.25000   0.00000  Uiso   1.00
C59    C     0.63970   0.84220   0.25000   0.00000  Uiso   1.00
C60    C     0.69250   0.86780   0.25000   0.00000  Uiso   1.00
C61    C     0.77460   0.86190   0.25000   0.00000  Uiso   1.00
C62    C     0.89700   0.97650   0.25000   0.00000  Uiso   1.00
C63    C     0.26750   0.25910   0.25000   0.00000  Uiso   1.00
C64    C     0.04700   0.37200   0.25000   0.00000  Uiso   1.00
C65    C     0.03370   0.41380   0.25000   0.00000  Uiso   1.00
N17    N     0.46690   0.70600   0.25000   0.00000  Uiso   1.00
N18    N     0.51610   0.71470   0.25000   0.00000  Uiso   1.00
N19    N     0.81060   0.91500   0.25000   0.00000  Uiso   1.00
N20    N     0.86170   0.92980   0.25000   0.00000  Uiso   1.00
O17    O     0.53800   0.79700   0.25000   0.00000  Uiso   1.00
O18    O     0.79180   0.83330   0.25000   0.00000  Uiso   1.00
O19    O     0.10090   0.39430   0.25000   0.00000  Uiso   1.00
O20    O     0.72050   0.92110   0.25000   0.00000  Uiso   1.00
H99    H     0.62110   0.86440   0.25000   0.00000  Uiso   1.00
H100   H     0.70710   0.76370   0.25000   0.00000  Uiso   1.00
H101   H     0.80080   0.94300   0.25000   0.00000  Uiso   1.00
H102   H     0.88790   0.00670   0.25000   0.00000  Uiso   1.00
H103   H     0.97850   0.06840   0.25000   0.00000  Uiso   1.00
H104   H     0.42620   0.62790   0.25000   0.00000  Uiso   1.00
H105   H     0.41550   0.74730   0.25000   0.00000  Uiso   1.00
H106   H     0.31560   0.83840   0.25000   0.00000  Uiso   1.00
H107   H     0.77900   0.01190   0.25000   0.00000  Uiso   1.00
H108   H     0.60300   0.59490   0.25000   0.00000  Uiso   1.00
C66    C     0.33680   0.76250   0.25000   0.00000  Uiso   1.00
C67    C     0.23280   0.78670   0.25000   0.00000  Uiso   1.00
C68    C     0.21120   0.82140   0.25000   0.00000  Uiso   1.00
C69    C     0.24010   0.87500   0.25000   0.00000  Uiso   1.00
C70    C     0.21440   0.90260   0.25000   0.00000  Uiso   1.00
C71    C     0.16080   0.87860   0.25000   0.00000  Uiso   1.00
C72    C     0.15780   0.79750   0.25000   0.00000  Uiso   1.00
C73    C     0.13220   0.82470   0.25000   0.00000  Uiso   1.00
C74    C     0.13810   0.91270   0.25000   0.00000  Uiso   1.00
C75    C     0.02350   0.92050   0.25000   0.00000  Uiso   1.00
C76    C     0.74090   0.00840   0.25000   0.00000  Uiso   1.00
C77    C     0.62800   0.67500   0.25000   0.00000  Uiso   1.00
C78    C     0.58620   0.61990   0.25000   0.00000  Uiso   1.00
N21    N     0.29400   0.76090   0.25000   0.00000  Uiso   1.00
N22    N     0.28530   0.80140   0.25000   0.00000  Uiso   1.00
N23    N     0.08500   0.89560   0.25000   0.00000  Uiso   1.00
N24    N     0.07020   0.93190   0.25000   0.00000  Uiso   1.00
O21    O     0.20300   0.74100   0.25000   0.00000  Uiso   1.00
O22    O     0.16670   0.95850   0.25000   0.00000  Uiso   1.00
O23    O     0.60570   0.70660   0.25000   0.00000  Uiso   1.00
O24    O     0.07890   0.79940   0.25000   0.00000  Uiso   1.00
C79    C     0.05060   0.01200   0.25000   0.00000  Uiso   1.00
C80    C     0.03880   0.05050   0.25000   0.00000  Uiso   1.00
C81    C     0.33210   0.62030   0.25000   0.00000  Uiso   1.00
C82    C     0.37850   0.66500   0.25000   0.00000  Uiso   1.00
C83    C     0.25450   0.30150   0.25000   0.00000  Uiso   1.00
C84    C     0.98800   0.03860   0.25000   0.00000  Uiso   1.00
C85    C     0.94950   0.98830   0.25000   0.00000  Uiso   1.00
C86    C     0.37970   0.71180   0.25000   0.00000  Uiso   1.00
C87    C     0.33500   0.71350   0.25000   0.00000  Uiso   1.00
C88    C     0.69850   0.95300   0.25000   0.00000  Uiso   1.00
C89    C     0.96140   0.94940   0.25000   0.00000  Uiso   1.00
C90    C     0.01170   0.96120   0.25000   0.00000  Uiso   1.00
C91    C     0.28820   0.66790   0.25000   0.00000  Uiso   1.00
C92    C     0.28650   0.62150   0.25000   0.00000  Uiso   1.00
C93    C     0.04700   0.74550   0.25000   0.00000  Uiso   1.00
C94    C     0.94940   0.98800   0.75000   0.00000  Uiso   1.00
C95    C     0.96120   0.94950   0.75000   0.00000  Uiso   1.00
C96    C     0.66790   0.37970   0.75000   0.00000  Uiso   1.00
C97    C     0.62150   0.33500   0.75000   0.00000  Uiso   1.00
C98    C     0.74550   0.69850   0.75000   0.00000  Uiso   1.00
C99    C     0.01200   0.96140   0.75000   0.00000  Uiso   1.00
C100   C     0.05050   0.01170   0.75000   0.00000  Uiso   1.00
C101   C     0.62030   0.28820   0.75000   0.00000  Uiso   1.00
C102   C     0.66500   0.28650   0.75000   0.00000  Uiso   1.00
C103   C     0.30150   0.04700   0.75000   0.00000  Uiso   1.00
C104   C     0.03860   0.05060   0.75000   0.00000  Uiso   1.00
C105   C     0.98830   0.03880   0.75000   0.00000  Uiso   1.00
C106   C     0.71180   0.33210   0.75000   0.00000  Uiso   1.00
C107   C     0.71350   0.37850   0.75000   0.00000  Uiso   1.00
C108   C     0.95300   0.25450   0.75000   0.00000  Uiso   1.00
loop_
_geom_bond_atom_site_label_1
_geom_bond_atom_site_label_2
_geom_bond_distance
_geom_bond_site_symmetry_2
_ccdc_geom_bond_type
H1     C11     1.106   .     S
H2     C108    1.112   .     S
H3     C12     1.108   .     S
H4     C13     1.111   .     S
H5     C24     1.106   .     S
H6     C98     1.112   .     S
H7     C25     1.108   .     S
H8     C26     1.111   .     S
H9     C37     1.106   .     S
H10    C103    1.112   .     S
H11    C38     1.108   .     S
H12    C39     1.111   .     S
H13    C50     1.106   .     S
H14    C93     1.112   .     S
H15    C51     1.108   .     S
H16    C52     1.111   .     S
H17    C63     1.106   .     S
H18    C83     1.112   .     S
H19    C64     1.108   .     S
H20    C65     1.111   .     S
H21    C76     1.106   .     S
H22    C88     1.112   .     S
H23    C77     1.108   .     S
H24    C78     1.111   .     S
H25    C50     1.106   .     S
H26    C93     1.112   .     S
H27    C51     1.108   .     S
H28    C52     1.111   .     S
H29    C63     1.106   .     S
H30    C83     1.112   .     S
H31    C64     1.108   .     S
H32    C65     1.111   .     S
H33    C76     1.106   .     S
H34    C88     1.112   .     S
H35    C77     1.108   .     S
H36    C78     1.111   .     S
H37    C11     1.106   .     S
H38    C108    1.112   .     S
H39    C12     1.108   .     S
H40    C13     1.111   .     S
H41    C24     1.106   .     S
H42    C98     1.112   .     S
H43    C25     1.108   .     S
H44    C26     1.111   .     S
H45    C37     1.106   .     S
H46    C103    1.112   .     S
H47    C38     1.108   .     S
H48    C39     1.111   .     S
H49    C33     1.078   .     S
H50    C31     1.078   .     S
H51    N11     1.035   .     S
H53    C104    1.082   .     S
H54    C27     1.084   .     S
H55    C106    1.087   .     S
H56    N2      1.041   .     S
H57    C11     1.112   .     S
C1     N1      1.281   .     S
C1     H64     1.084   .     S
C1     C107    1.467   .     S
C2     O1      1.225   .     S
C2     C3      1.499   .     S
C2     N2      1.430   .     S
C3     C7      1.412   .     S
C3     C4      1.416   .     S
C4     O7      1.409   .     S
C4     C5      1.407   .     S
C5     C6      1.417   .     S
C5     H60     1.078   .     S
C6     C8      1.423   .     S
C6     C9      1.509   .     S
C7     H59     1.078   .     S
C7     C8      1.394   .     S
C8     O4      1.407   .     S
C9     O2      1.221   .     S
C9     N3      1.431   .     S
C10    H62     1.086   .     S
C10    C95     1.454   .     S
C10    N4      1.285   .     S
C12    C13     1.518   .     S
C12    O3      1.430   .     S
N1     N2      1.386   .     S
N3     N4      1.388   .     S
N3     H61     1.035   .     S
O3     C30     1.409   .     S
O4     C98     1.431   .     S
H63    C94     1.082   .     S
H65    C96     1.086   .     S
H66    N6      1.041   .     S
H67    C24     1.112   .     S
C14    H74     1.084   .     S
C14    N5      1.281   .     S
C14    C97     1.467   .     S
C15    C16     1.499   .     S
C15    O5      1.225   .     S
C15    N6      1.430   .     S
C16    C17     1.416   .     S
C16    C20     1.412   .     S
C17    C18     1.407   .     S
C17    O11     1.409   .     S
C18    H70     1.078   .     S
C18    C19     1.417   .     S
C19    C22     1.509   .     S
C19    C21     1.423   .     S
C20    H69     1.078   .     S
C20    C21     1.394   .     S
C21    O8      1.407   .     S
C22    O6      1.221   .     S
C22    N7      1.431   .     S
C23    C100    1.454   .     S
C23    N8      1.285   .     S
C24    C98     1.529   .     S
C25    O7      1.430   .     S
C25    C26     1.518   .     S
N5     N6      1.386   .     S
N7     N8      1.388   .     S
N7     H71     1.035   .     S
O8     C103    1.431   .     S
H73    C99     1.082   .     S
H75    C101    1.086   .     S
H76    N10     1.041   .     S
H77    C37     1.112   .     S
H78    C39     1.110   .     S
C27    N9      1.281   .     S
C27    C102    1.467   .     S
C28    O9      1.225   .     S
C28    N10     1.430   .     S
C28    C29     1.499   .     S
C29    C33     1.412   .     S
C29    C30     1.416   .     S
C30    C31     1.407   .     S
C31    C32     1.417   .     S
C32    C35     1.509   .     S
C32    C34     1.423   .     S
C33    C34     1.394   .     S
C34    O12     1.407   .     S
C35    N11     1.431   .     S
C35    O10     1.221   .     S
C36    N12     1.285   .     S
C36    C105    1.454   .     S
C38    O11     1.430   .     S
C38    C39     1.518   .     S
N9     N10     1.386   .     S
N11    N12     1.388   .     S
O12    C108    1.431   .     S
H79    C72     1.078   .     S
H80    C70     1.078   .     S
H81    N23     1.035   .     S
H83    C89     1.082   .     S
H84    C66     1.084   .     S
H85    C91     1.086   .     S
H86    N14     1.041   .     S
H87    C50     1.112   .     S
C40    H94     1.084   .     S
C40    C92     1.467   .     S
C40    N13     1.281   .     S
C41    O13     1.225   .     S
C41    N14     1.430   .     S
C41    C42     1.499   .     S
C42    C43     1.416   .     S
C42    C46     1.412   .     S
C43    O19     1.409   .     S
C43    C44     1.407   .     S
C44    H90     1.078   .     S
C44    C45     1.417   .     S
C45    C47     1.423   .     S
C45    C48     1.509   .     S
C46    H89     1.078   .     S
C46    C47     1.394   .     S
C47    O16     1.407   .     S
C48    O14     1.221   .     S
C48    N15     1.431   .     S
C49    H92     1.086   .     S
C49    N16     1.285   .     S
C49    C80     1.454   .     S
C51    C52     1.518   .     S
C51    O15     1.430   .     S
N13    N14     1.386   .     S
N15    H91     1.035   .     S
N15    N16     1.388   .     S
O15    C69     1.409   .     S
O16    C83     1.431   .     S
H93    C79     1.082   .     S
H95    C81     1.086   .     S
H96    N18     1.041   .     S
H97    C63     1.112   .     S
C53    H104    1.084   .     S
C53    C82     1.467   .     S
C53    N17     1.281   .     S
C54    O17     1.225   .     S
C54    C55     1.499   .     S
C54    N18     1.430   .     S
C55    C56     1.416   .     S
C55    C59     1.412   .     S
C56    C57     1.407   .     S
C56    O23     1.409   .     S
C57    H100    1.078   .     S
C57    C58     1.417   .     S
C58    C61     1.509   .     S
C58    C60     1.423   .     S
C59    H99     1.078   .     S
C59    C60     1.394   .     S
C60    O20     1.407   .     S
C61    O18     1.221   .     S
C61    N19     1.431   .     S
C62    C85     1.454   .     S
C62    N20     1.285   .     S
C63    C83     1.529   .     S
C64    O19     1.430   .     S
C64    C65     1.518   .     S
N17    N18     1.386   .     S
N19    N20     1.388   .     S
N19    H101    1.035   .     S
O20    C88     1.431   .     S
H103   C84     1.082   .     S
H105   C86     1.086   .     S
H106   N22     1.041   .     S
H107   C76     1.112   .     S
H108   C78     1.110   .     S
C66    N21     1.281   .     S
C66    C87     1.467   .     S
C67    O21     1.225   .     S
C67    N22     1.430   .     S
C67    C68     1.499   .     S
C68    C69     1.416   .     S
C68    C72     1.412   .     S
C69    C70     1.407   .     S
C70    C71     1.417   .     S
C71    C74     1.509   .     S
C71    C73     1.423   .     S
C72    C73     1.394   .     S
C73    O24     1.407   .     S
C74    N23     1.431   .     S
C74    O22     1.221   .     S
C75    N24     1.285   .     S
C75    C90     1.454   .     S
C77    O23     1.430   .     S
C77    C78     1.518   .     S
N21    N22     1.386   .     S
N23    N24     1.388   .     S
O24    C93     1.431   .     S
C79    C80     1.389   .     S
C81    C82     1.389   .     S
C81    C92     1.408   .     S
C82    C86     1.408   .     S
C85    C89     1.402   .     S
C86    C87     1.389   .     S
C87    C91     1.408   .     S
C91    C92     1.389   .     S
C94    C95     1.389   .     S
C96    C107    1.408   .     S
C96    C97     1.389   .     S
C97    C101    1.408   .     S
C100   C104    1.402   .     S
C101   C102    1.389   .     S
C102   C106    1.408   .     S
C106   C107    1.389   .     S
