data_COF-LZU1
_audit_creation_date              2016-12-13
_audit_creation_method            'Materials Studio'
_symmetry_space_group_name_H-M    'P1'
_symmetry_Int_Tables_number       1
_symmetry_cell_setting            triclinic
loop_
_symmetry_equiv_pos_as_xyz
  x,y,z
_cell_length_a                    22.0400
_cell_length_b                    22.0400
_cell_length_c                    3.7290
_cell_angle_alpha                 90.0000
_cell_angle_beta                  90.0000
_cell_angle_gamma                 120.0000
loop_
_atom_site_label
_atom_site_type_symbol
_atom_site_fract_x
_atom_site_fract_y
_atom_site_fract_z
_atom_site_U_iso_or_equiv
_atom_site_adp_type
_atom_site_occupancy
C1     C     0.73676   0.38428   0.50000   0.00000  Uiso   1.00
C2     C     0.68630   0.40374   0.50000   0.00000  Uiso   1.00
C3     C     0.80937   0.43766   0.50000   0.00000  Uiso   1.00
N1     N     0.85496   0.41780   0.50000   0.00000  Uiso   1.00
C4     C     0.92807   0.46088   0.50000   0.00000  Uiso   1.00
C5     C     0.96696   0.42724   0.50000   0.00000  Uiso   1.00
C6     C     0.03890   0.46595   0.50000   0.00000  Uiso   1.00
H1     H     0.70235   0.45878   0.50000   0.00000  Uiso   1.00
H2     H     0.82347   0.49198   0.50000   0.00000  Uiso   1.00
H3     H     0.94114   0.37073   0.50000   0.00000  Uiso   1.00
H4     H     0.06724   0.43798   0.50000   0.00000  Uiso   1.00
C7     C     0.61572   0.35248   0.50000   0.00000  Uiso   1.00
C8     C     0.59626   0.28256   0.50000   0.00000  Uiso   1.00
C9     C     0.56234   0.37171   0.50000   0.00000  Uiso   1.00
N2     N     0.58220   0.43716   0.50000   0.00000  Uiso   1.00
C10    C     0.53912   0.46719   0.50000   0.00000  Uiso   1.00
C11    C     0.57276   0.53972   0.50000   0.00000  Uiso   1.00
C12    C     0.53405   0.57295   0.50000   0.00000  Uiso   1.00
H5     H     0.54122   0.24357   0.50000   0.00000  Uiso   1.00
H6     H     0.50802   0.33149   0.50000   0.00000  Uiso   1.00
H7     H     0.62927   0.57041   0.50000   0.00000  Uiso   1.00
H8     H     0.56202   0.62926   0.50000   0.00000  Uiso   1.00
C13    C     0.64752   0.26324   0.50000   0.00000  Uiso   1.00
C14    C     0.71744   0.31370   0.50000   0.00000  Uiso   1.00
C15    C     0.62829   0.19063   0.50000   0.00000  Uiso   1.00
N3     N     0.56284   0.14504   0.50000   0.00000  Uiso   1.00
C16    C     0.53281   0.07193   0.50000   0.00000  Uiso   1.00
C17    C     0.46028   0.03304   0.50000   0.00000  Uiso   1.00
C18    C     0.42705   0.96110   0.50000   0.00000  Uiso   1.00
H9     H     0.75643   0.29765   0.50000   0.00000  Uiso   1.00
H10    H     0.66851   0.17653   0.50000   0.00000  Uiso   1.00
H11    H     0.42959   0.05886   0.50000   0.00000  Uiso   1.00
H12    H     0.37074   0.93276   0.50000   0.00000  Uiso   1.00
C19    C     0.26324   0.61572   0.50000   0.00000  Uiso   1.00
C20    C     0.31370   0.59626   0.50000   0.00000  Uiso   1.00
C21    C     0.19063   0.56234   0.50000   0.00000  Uiso   1.00
N4     N     0.14504   0.58220   0.50000   0.00000  Uiso   1.00
C22    C     0.07193   0.53912   0.50000   0.00000  Uiso   1.00
C23    C     0.03304   0.57276   0.50000   0.00000  Uiso   1.00
C24    C     0.96110   0.53405   0.50000   0.00000  Uiso   1.00
H13    H     0.29765   0.54122   0.50000   0.00000  Uiso   1.00
H14    H     0.17653   0.50802   0.50000   0.00000  Uiso   1.00
H15    H     0.05886   0.62927   0.50000   0.00000  Uiso   1.00
H16    H     0.93276   0.56202   0.50000   0.00000  Uiso   1.00
C25    C     0.38428   0.64752   0.50000   0.00000  Uiso   1.00
C26    C     0.40374   0.71744   0.50000   0.00000  Uiso   1.00
C27    C     0.43766   0.62829   0.50000   0.00000  Uiso   1.00
N5     N     0.41780   0.56284   0.50000   0.00000  Uiso   1.00
C28    C     0.46088   0.53281   0.50000   0.00000  Uiso   1.00
C29    C     0.42724   0.46028   0.50000   0.00000  Uiso   1.00
C30    C     0.46595   0.42705   0.50000   0.00000  Uiso   1.00
H17    H     0.45878   0.75643   0.50000   0.00000  Uiso   1.00
H18    H     0.49198   0.66851   0.50000   0.00000  Uiso   1.00
H19    H     0.37073   0.42959   0.50000   0.00000  Uiso   1.00
H20    H     0.43798   0.37074   0.50000   0.00000  Uiso   1.00
C31    C     0.35248   0.73676   0.50000   0.00000  Uiso   1.00
C32    C     0.28256   0.68630   0.50000   0.00000  Uiso   1.00
C33    C     0.37171   0.80937   0.50000   0.00000  Uiso   1.00
N6     N     0.43716   0.85496   0.50000   0.00000  Uiso   1.00
C34    C     0.46719   0.92807   0.50000   0.00000  Uiso   1.00
C35    C     0.53972   0.96696   0.50000   0.00000  Uiso   1.00
C36    C     0.57295   0.03890   0.50000   0.00000  Uiso   1.00
H21    H     0.24357   0.70235   0.50000   0.00000  Uiso   1.00
H22    H     0.33149   0.82347   0.50000   0.00000  Uiso   1.00
H23    H     0.57041   0.94114   0.50000   0.00000  Uiso   1.00
H24    H     0.62926   0.06724   0.50000   0.00000  Uiso   1.00
loop_
_geom_bond_atom_site_label_1
_geom_bond_atom_site_label_2
_geom_bond_distance
_geom_bond_site_symmetry_2
_ccdc_geom_bond_type
C1     C2      1.378   .     S
C1     C3      1.436   .     S
C1     C14     1.392   .     S
C2     H1      1.081   .     S
C2     C7      1.392   .     S
C3     N1      1.281   .     S
C3     H2      1.076   .     S
N1     C4      1.403   .     S
C4     C5      1.386   .     S
C4     C24     1.399   .     S
C5     H3      1.080   .     S
C6     C22     1.399   .     S
C6     H4      1.075   .     S
C7     C8      1.378   .     S
C7     C9      1.436   .     S
C8     H5      1.081   .     S
C8     C13     1.392   .     S
C9     N2      1.281   .     S
C9     H6      1.076   .     S
N2     C10     1.403   .     S
C10    C11     1.386   .     S
C10    C30     1.399   .     S
C11    C12     1.374   .     S
C11    H7      1.080   .     S
C12    H8      1.075   .     S
C12    C28     1.399   .     S
C13    C15     1.436   .     S
C13    C14     1.378   .     S
C14    H9      1.081   .     S
C15    N3      1.281   .     S
C15    H10     1.076   .     S
N3     C16     1.403   .     S
C16    C36     1.399   .     S
C16    C17     1.386   .     S
C17    H11     1.080   .     S
C18    H12     1.075   .     S
C18    C34     1.399   .     S
C19    C21     1.436   .     S
C19    C20     1.378   .     S
C19    C32     1.392   .     S
C20    C25     1.392   .     S
C20    H13     1.081   .     S
C21    N4      1.281   .     S
C21    H14     1.076   .     S
N4     C22     1.403   .     S
C22    C23     1.386   .     S
C23    H15     1.080   .     S
C24    H16     1.075   .     S
C25    C27     1.436   .     S
C25    C26     1.378   .     S
C26    C31     1.392   .     S
C26    H17     1.081   .     S
C27    N5      1.281   .     S
C27    H18     1.076   .     S
N5     C28     1.403   .     S
C28    C29     1.386   .     S
C29    H19     1.080   .     S
C29    C30     1.374   .     S
C30    H20     1.075   .     S
C31    C32     1.378   .     S
C31    C33     1.436   .     S
C32    H21     1.081   .     S
C33    H22     1.076   .     S
C33    N6      1.281   .     S
N6     C34     1.403   .     S
C34    C35     1.386   .     S
C35    H23     1.080   .     S
C36    H24     1.075   .     S
