data_COF-14A
_audit_creation_date              2016-12-13
_audit_creation_method            'Materials Studio'
_symmetry_space_group_name_H-M    'P1'
_symmetry_Int_Tables_number       1
_symmetry_cell_setting            triclinic
loop_
_symmetry_equiv_pos_as_xyz
  x,y,z
_cell_length_a                    21.7099
_cell_length_b                    4.1112
_cell_length_c                    21.6911
_cell_angle_alpha                 90.0000
_cell_angle_beta                  120.1725
_cell_angle_gamma                 90.0000
loop_
_atom_site_label
_atom_site_type_symbol
_atom_site_fract_x
_atom_site_fract_y
_atom_site_fract_z
_atom_site_U_iso_or_equiv
_atom_site_adp_type
_atom_site_occupancy
C1     C     0.00420   0.50000   0.57295   0.00000  Uiso   1.00
C2     C     0.56928   0.50000   0.99791   0.00000  Uiso   1.00
C3     C     0.42906   0.50000   0.43283   0.00000  Uiso   1.00
C4     C     0.99691   0.50000   0.42927   0.00000  Uiso   1.00
C5     C     0.43272   0.50000   0.00464   0.00000  Uiso   1.00
C6     C     0.57300   0.50000   0.56956   0.00000  Uiso   1.00
C7     C     0.06674   0.50000   0.56763   0.00000  Uiso   1.00
C8     C     0.50128   0.50000   0.93568   0.00000  Uiso   1.00
C9     C     0.43519   0.50000   0.50087   0.00000  Uiso   1.00
C10    C     0.93501   0.50000   0.43515   0.00000  Uiso   1.00
C11    C     0.50072   0.50000   0.06687   0.00000  Uiso   1.00
C12    C     0.56686   0.50000   0.50152   0.00000  Uiso   1.00
O1     O     0.13558   0.50000   0.62079   0.00000  Uiso   1.00
O2     O     0.48708   0.50000   0.86742   0.00000  Uiso   1.00
O3     O     0.38124   0.50000   0.51506   0.00000  Uiso   1.00
O4     O     0.86647   0.50000   0.38143   0.00000  Uiso   1.00
O5     O     0.51497   0.50000   0.13516   0.00000  Uiso   1.00
O6     O     0.62080   0.50000   0.48733   0.00000  Uiso   1.00
C13    C     0.56839   0.50000   0.06636   0.00000  Uiso   1.00
C14    C     0.49836   0.50000   0.43376   0.00000  Uiso   1.00
C15    C     0.93623   0.50000   0.50355   0.00000  Uiso   1.00
C16    C     0.43361   0.50000   0.93619   0.00000  Uiso   1.00
C17    C     0.50369   0.50000   0.56863   0.00000  Uiso   1.00
C18    C     0.06558   0.50000   0.49882   0.00000  Uiso   1.00
O7     O     0.62590   0.50000   0.13775   0.00000  Uiso   1.00
O8     O     0.51195   0.50000   0.37624   0.00000  Uiso   1.00
O9     O     0.86559   0.50000   0.49084   0.00000  Uiso   1.00
O10    O     0.37613   0.50000   0.86479   0.00000  Uiso   1.00
O11    O     0.49010   0.50000   0.62613   0.00000  Uiso   1.00
O12    O     0.13648   0.50000   0.51174   0.00000  Uiso   1.00
C19    C     0.25892   0.50000   0.62884   0.00000  Uiso   1.00
C20    C     0.37177   0.50000   0.74320   0.00000  Uiso   1.00
C21    C     0.37295   0.50000   0.63042   0.00000  Uiso   1.00
C22    C     0.74327   0.50000   0.37371   0.00000  Uiso   1.00
C23    C     0.63037   0.50000   0.25934   0.00000  Uiso   1.00
C24    C     0.62921   0.50000   0.37211   0.00000  Uiso   1.00
B1     B     0.17952   0.50000   0.58837   0.00000  Uiso   1.00
B2     B     0.41055   0.50000   0.82267   0.00000  Uiso   1.00
B3     B     0.41343   0.50000   0.59167   0.00000  Uiso   1.00
B4     B     0.82268   0.50000   0.41413   0.00000  Uiso   1.00
B5     B     0.59150   0.50000   0.17987   0.00000  Uiso   1.00
B6     B     0.58863   0.50000   0.41075   0.00000  Uiso   1.00
C25    C     0.59275   0.50000   0.29680   0.00000  Uiso   1.00
C26    C     0.70449   0.50000   0.41003   0.00000  Uiso   1.00
C27    C     0.70561   0.50000   0.29839   0.00000  Uiso   1.00
C28    C     0.40940   0.50000   0.70574   0.00000  Uiso   1.00
C29    C     0.29769   0.50000   0.59255   0.00000  Uiso   1.00
C30    C     0.29654   0.50000   0.70415   0.00000  Uiso   1.00
H1     H     0.73145   0.50000   0.46490   0.00000  Uiso   1.00
H2     H     0.73330   0.50000   0.27142   0.00000  Uiso   1.00
H3     H     0.53797   0.50000   0.26885   0.00000  Uiso   1.00
H4     H     0.27064   0.50000   0.53773   0.00000  Uiso   1.00
H5     H     0.26878   0.50000   0.73102   0.00000  Uiso   1.00
H6     H     0.46417   0.50000   0.73368   0.00000  Uiso   1.00
H7     H     0.10379   0.71338   0.71483   0.00000  Uiso   1.00
H8     H     0.96911   0.71250   0.63826   0.00000  Uiso   1.00
H9     H     0.61912   0.28782   0.71166   0.00000  Uiso   1.00
H10    H     0.67414   0.28747   0.63213   0.00000  Uiso   1.00
H11    H     0.38294   0.28785   0.29074   0.00000  Uiso   1.00
H12    H     0.32797   0.28740   0.37030   0.00000  Uiso   1.00
H13    H     0.09256   0.28787   0.38311   0.00000  Uiso   1.00
H14    H     0.95782   0.28739   0.32809   0.00000  Uiso   1.00
H15    H     0.29076   0.28782   0.90800   0.00000  Uiso   1.00
H16    H     0.37024   0.28739   0.04297   0.00000  Uiso   1.00
H17    H     0.71127   0.28783   0.09449   0.00000  Uiso   1.00
H18    H     0.63170   0.28741   0.95951   0.00000  Uiso   1.00
H19    H     0.10379   0.28662   0.71483   0.00000  Uiso   1.00
H20    H     0.96911   0.28750   0.63826   0.00000  Uiso   1.00
H21    H     0.61912   0.71218   0.71166   0.00000  Uiso   1.00
H22    H     0.67414   0.71253   0.63213   0.00000  Uiso   1.00
H23    H     0.38294   0.71215   0.29074   0.00000  Uiso   1.00
H24    H     0.32797   0.71260   0.37030   0.00000  Uiso   1.00
H25    H     0.09256   0.71213   0.38311   0.00000  Uiso   1.00
H26    H     0.95782   0.71261   0.32809   0.00000  Uiso   1.00
H27    H     0.29076   0.71219   0.90800   0.00000  Uiso   1.00
H28    H     0.37024   0.71261   0.04297   0.00000  Uiso   1.00
H29    H     0.71127   0.71217   0.09449   0.00000  Uiso   1.00
H30    H     0.63170   0.71259   0.95951   0.00000  Uiso   1.00
C31    C     0.07226   0.50000   0.71133   0.00000  Uiso   1.00
C32    C     0.00024   0.50000   0.63983   0.00000  Uiso   1.00
H31    H     0.06364   0.50000   0.75677   0.00000  Uiso   1.00
C33    C     0.64711   0.50000   0.70751   0.00000  Uiso   1.00
C34    C     0.64530   0.50000   0.63493   0.00000  Uiso   1.00
H32    H     0.70175   0.50000   0.75220   0.00000  Uiso   1.00
C35    C     0.35494   0.50000   0.29488   0.00000  Uiso   1.00
C36    C     0.35676   0.50000   0.36745   0.00000  Uiso   1.00
H33    H     0.30031   0.50000   0.25017   0.00000  Uiso   1.00
C37    C     0.06025   0.50000   0.35508   0.00000  Uiso   1.00
C38    C     0.98958   0.50000   0.35692   0.00000  Uiso   1.00
H34    H     0.05001   0.50000   0.30040   0.00000  Uiso   1.00
C39    C     0.29487   0.50000   0.94017   0.00000  Uiso   1.00
C40    C     0.36740   0.50000   0.01130   0.00000  Uiso   1.00
H35    H     0.25023   0.50000   0.94994   0.00000  Uiso   1.00
C41    C     0.70711   0.50000   0.06230   0.00000  Uiso   1.00
C42    C     0.63456   0.50000   0.99120   0.00000  Uiso   1.00
H36    H     0.75174   0.50000   0.05251   0.00000  Uiso   1.00
loop_
_geom_bond_atom_site_label_1
_geom_bond_atom_site_label_2
_geom_bond_distance
_geom_bond_site_symmetry_2
_ccdc_geom_bond_type
C1     C32     1.496   .     S
C1     C7      1.419   .     S
C2     C42     1.496   .     S
C2     C8      1.413   .     S
C3     C14     1.495   .     S
C3     C36     1.496   .     S
C3     C9      1.414   .     S
C4     C10     1.412   .     S
C4     C38     1.496   .     S
C5     C11     1.414   .     S
C5     C40     1.496   .     S
C6     C17     1.494   .     S
C6     C34     1.496   .     S
C6     C12     1.413   .     S
C7     O1      1.353   .     S
C7     C18     1.480   .     S
C8     O2      1.352   .     S
C8     C16     1.475   .     S
C9     O3      1.352   .     S
C9     C17     1.475   .     S
C10    O4      1.352   .     S
C10    C15     1.471   .     S
C11    C13     1.475   .     S
C11    O5      1.353   .     S
C12    O6      1.352   .     S
C12    C14     1.475   .     S
O1     B1      1.442   .     S
O2     B2      1.443   .     S
O3     B3      1.443   .     S
O4     B4      1.444   .     S
O5     B5      1.443   .     S
O6     B6      1.442   .     S
C13    O7      1.419   .     S
C14    O8      1.419   .     S
C15    O9      1.415   .     S
C16    O10     1.419   .     S
C17    O11     1.419   .     S
C18    O12     1.419   .     S
O7     B5      1.442   .     S
O8     B6      1.442   .     S
O9     B4      1.442   .     S
O10    B2      1.442   .     S
O11    B3      1.442   .     S
O12    B1      1.440   .     S
C19    B1      1.490   .     S
C19    C29     1.412   .     S
C19    C30     1.412   .     S
C20    C30     1.412   .     S
C20    C28     1.412   .     S
C20    B2      1.490   .     S
C21    C29     1.413   .     S
C21    B3      1.490   .     S
C21    C28     1.413   .     S
C22    C27     1.413   .     S
C22    C26     1.413   .     S
C22    B4      1.490   .     S
C23    B5      1.490   .     S
C23    C27     1.412   .     S
C23    C25     1.412   .     S
C24    C25     1.413   .     S
C24    B6      1.490   .     S
C24    C26     1.413   .     S
C25    H3      1.028   .     S
C26    H1      1.029   .     S
C27    H2      1.028   .     S
C28    H6      1.028   .     S
C29    H4      1.028   .     S
C30    H5      1.028   .     S
H7     C31     1.092   .     S
H9     C33     1.092   .     S
H10    C34     1.094   .     S
H11    C35     1.092   .     S
H12    C36     1.094   .     S
H13    C37     1.093   .     S
H14    C38     1.094   .     S
H15    C39     1.092   .     S
H16    C40     1.094   .     S
H17    C41     1.092   .     S
H18    C42     1.094   .     S
H19    C31     1.092   .     S
H21    C33     1.092   .     S
H22    C34     1.094   .     S
H23    C35     1.092   .     S
H24    C36     1.094   .     S
H25    C37     1.093   .     S
H26    C38     1.094   .     S
H27    C39     1.092   .     S
H28    C40     1.094   .     S
H29    C41     1.092   .     S
H30    C42     1.094   .     S
C31    C32     1.553   .     S
C31    H31     1.092   .     S
C33    H32     1.091   .     S
C33    C34     1.555   .     S
C35    C36     1.555   .     S
C35    H33     1.091   .     S
C37    H34     1.091   .     S
C39    H35     1.091   .     S
C41    H36     1.091   .     S
