data_COF-AA-H
_audit_creation_date              2016-12-13
_audit_creation_method            'Materials Studio'
_symmetry_space_group_name_H-M    'P1'
_symmetry_Int_Tables_number       1
_symmetry_cell_setting            triclinic
loop_
_symmetry_equiv_pos_as_xyz
  x,y,z
_cell_length_a                    38.0000
_cell_length_b                    38.0000
_cell_length_c                    4.6000
_cell_angle_alpha                 90.0000
_cell_angle_beta                  90.0000
_cell_angle_gamma                 120.0000
loop_
_atom_site_label
_atom_site_type_symbol
_atom_site_fract_x
_atom_site_fract_y
_atom_site_fract_z
_atom_site_U_iso_or_equiv
_atom_site_adp_type
_atom_site_occupancy
C1     C     0.54958   0.96715   0.73005   0.00000  Uiso   1.00
C2     C     0.55638   0.93430   0.72769   0.00000  Uiso   1.00
C3     C     0.51933   0.91090   0.27849   0.00000  Uiso   1.00
C4     C     0.51247   0.94371   0.28008   0.00000  Uiso   1.00
C5     C     0.51581   0.61173   0.27167   0.00000  Uiso   1.00
C6     C     0.52269   0.57892   0.27308   0.00000  Uiso   1.00
C7     C     0.48880   0.55752   0.73617   0.00000  Uiso   1.00
C8     C     0.48198   0.59036   0.73397   0.00000  Uiso   1.00
H1     H     0.56111   0.98881   0.90777   0.00000  Uiso   1.00
H2     H     0.57301   0.93034   0.90428   0.00000  Uiso   1.00
H3     H     0.50705   0.88868   0.10458   0.00000  Uiso   1.00
H4     H     0.49503   0.94707   0.10655   0.00000  Uiso   1.00
H5     H     0.52685   0.63316   0.09253   0.00000  Uiso   1.00
H6     H     0.53888   0.57478   0.09425   0.00000  Uiso   1.00
H7     H     0.47854   0.53666   0.91883   0.00000  Uiso   1.00
H8     H     0.46662   0.59511   0.91556   0.00000  Uiso   1.00
C9     C     0.03285   0.58243   0.73005   0.00000  Uiso   1.00
C10    C     0.06570   0.62208   0.72769   0.00000  Uiso   1.00
C11    C     0.08910   0.60843   0.27849   0.00000  Uiso   1.00
C12    C     0.05629   0.56876   0.28008   0.00000  Uiso   1.00
C13    C     0.38827   0.90408   0.27167   0.00000  Uiso   1.00
C14    C     0.42108   0.94377   0.27308   0.00000  Uiso   1.00
C15    C     0.44248   0.93128   0.73617   0.00000  Uiso   1.00
C16    C     0.40964   0.89162   0.73397   0.00000  Uiso   1.00
H9     H     0.01119   0.57230   0.90777   0.00000  Uiso   1.00
H10    H     0.06966   0.64267   0.90428   0.00000  Uiso   1.00
H11    H     0.11132   0.61837   0.10458   0.00000  Uiso   1.00
H12    H     0.05293   0.54796   0.10655   0.00000  Uiso   1.00
H13    H     0.36684   0.89369   0.09253   0.00000  Uiso   1.00
H14    H     0.42522   0.96410   0.09425   0.00000  Uiso   1.00
H15    H     0.46334   0.94188   0.91883   0.00000  Uiso   1.00
H16    H     0.40489   0.87151   0.91556   0.00000  Uiso   1.00
C17    C     0.41757   0.45042   0.73005   0.00000  Uiso   1.00
C18    C     0.37792   0.44362   0.72769   0.00000  Uiso   1.00
C19    C     0.39157   0.48067   0.27849   0.00000  Uiso   1.00
C20    C     0.43124   0.48753   0.28008   0.00000  Uiso   1.00
C21    C     0.09592   0.48419   0.27167   0.00000  Uiso   1.00
C22    C     0.05623   0.47731   0.27308   0.00000  Uiso   1.00
C23    C     0.06872   0.51120   0.73617   0.00000  Uiso   1.00
C24    C     0.10838   0.51802   0.73397   0.00000  Uiso   1.00
H17    H     0.42770   0.43889   0.90777   0.00000  Uiso   1.00
H18    H     0.35733   0.42699   0.90428   0.00000  Uiso   1.00
H19    H     0.38163   0.49295   0.10458   0.00000  Uiso   1.00
H20    H     0.45204   0.50497   0.10655   0.00000  Uiso   1.00
H21    H     0.10631   0.47315   0.09253   0.00000  Uiso   1.00
H22    H     0.03590   0.46112   0.09425   0.00000  Uiso   1.00
H23    H     0.05812   0.52146   0.91883   0.00000  Uiso   1.00
H24    H     0.12849   0.53338   0.91556   0.00000  Uiso   1.00
C25    C     0.45042   0.03285   0.73005   0.00000  Uiso   1.00
C26    C     0.44362   0.06570   0.72769   0.00000  Uiso   1.00
C27    C     0.48067   0.08910   0.27849   0.00000  Uiso   1.00
C28    C     0.48753   0.05629   0.28008   0.00000  Uiso   1.00
C29    C     0.48419   0.38827   0.27167   0.00000  Uiso   1.00
C30    C     0.47731   0.42108   0.27308   0.00000  Uiso   1.00
C31    C     0.51120   0.44248   0.73617   0.00000  Uiso   1.00
C32    C     0.51802   0.40964   0.73397   0.00000  Uiso   1.00
H25    H     0.43889   0.01119   0.90777   0.00000  Uiso   1.00
H26    H     0.42699   0.06966   0.90428   0.00000  Uiso   1.00
H27    H     0.49295   0.11132   0.10458   0.00000  Uiso   1.00
H28    H     0.50497   0.05293   0.10655   0.00000  Uiso   1.00
H29    H     0.47315   0.36684   0.09253   0.00000  Uiso   1.00
H30    H     0.46112   0.42522   0.09425   0.00000  Uiso   1.00
H31    H     0.52146   0.46334   0.91883   0.00000  Uiso   1.00
H32    H     0.53338   0.40489   0.91556   0.00000  Uiso   1.00
C33    C     0.96715   0.41757   0.73005   0.00000  Uiso   1.00
C34    C     0.93430   0.37792   0.72769   0.00000  Uiso   1.00
C35    C     0.91090   0.39157   0.27849   0.00000  Uiso   1.00
C36    C     0.94371   0.43124   0.28008   0.00000  Uiso   1.00
C37    C     0.61173   0.09592   0.27167   0.00000  Uiso   1.00
C38    C     0.57892   0.05623   0.27308   0.00000  Uiso   1.00
C39    C     0.55752   0.06872   0.73617   0.00000  Uiso   1.00
C40    C     0.59036   0.10838   0.73397   0.00000  Uiso   1.00
H33    H     0.98881   0.42770   0.90777   0.00000  Uiso   1.00
H34    H     0.93034   0.35733   0.90428   0.00000  Uiso   1.00
H35    H     0.88868   0.38163   0.10458   0.00000  Uiso   1.00
H36    H     0.94707   0.45204   0.10655   0.00000  Uiso   1.00
H37    H     0.63316   0.10631   0.09253   0.00000  Uiso   1.00
H38    H     0.57478   0.03590   0.09425   0.00000  Uiso   1.00
H39    H     0.53666   0.05812   0.91883   0.00000  Uiso   1.00
H40    H     0.59511   0.12849   0.91556   0.00000  Uiso   1.00
C41    C     0.58243   0.54958   0.73005   0.00000  Uiso   1.00
C42    C     0.62208   0.55638   0.72769   0.00000  Uiso   1.00
C43    C     0.60843   0.51933   0.27849   0.00000  Uiso   1.00
C44    C     0.56876   0.51247   0.28008   0.00000  Uiso   1.00
C45    C     0.90408   0.51581   0.27167   0.00000  Uiso   1.00
C46    C     0.94377   0.52269   0.27308   0.00000  Uiso   1.00
C47    C     0.93128   0.48880   0.73617   0.00000  Uiso   1.00
C48    C     0.89162   0.48198   0.73397   0.00000  Uiso   1.00
H41    H     0.57230   0.56111   0.90777   0.00000  Uiso   1.00
H42    H     0.64267   0.57301   0.90428   0.00000  Uiso   1.00
H43    H     0.61837   0.50705   0.10458   0.00000  Uiso   1.00
H44    H     0.54796   0.49503   0.10655   0.00000  Uiso   1.00
H45    H     0.89369   0.52685   0.09253   0.00000  Uiso   1.00
H46    H     0.96410   0.53888   0.09425   0.00000  Uiso   1.00
H47    H     0.94188   0.47854   0.91883   0.00000  Uiso   1.00
H48    H     0.87151   0.46662   0.91556   0.00000  Uiso   1.00
C49    C     0.47228   0.02810   0.50000   0.00000  Uiso   1.00
C50    C     0.45820   0.09371   0.50000   0.00000  Uiso   1.00
N1     N     0.45181   0.12693   0.50000   0.00000  Uiso   1.00
C51    C     0.48288   0.16325   0.50000   0.00000  Uiso   1.00
C52    C     0.48157   0.20144   0.50000   0.00000  Uiso   1.00
C53    C     0.51837   0.23814   0.50000   0.00000  Uiso   1.00
C54    C     0.51839   0.27493   0.50000   0.00000  Uiso   1.00
C55    C     0.48169   0.27493   0.50000   0.00000  Uiso   1.00
C56    C     0.44490   0.23823   0.50000   0.00000  Uiso   1.00
C57    C     0.44488   0.20144   0.50000   0.00000  Uiso   1.00
C58    C     0.48038   0.31313   0.50000   0.00000  Uiso   1.00
N2     N     0.51146   0.34944   0.50000   0.00000  Uiso   1.00
C59    C     0.50506   0.38267   0.50000   0.00000  Uiso   1.00
C60    C     0.49095   0.44825   0.50000   0.00000  Uiso   1.00
C61    C     0.47965   0.99373   0.50000   0.00000  Uiso   1.00
H49    H     0.51355   0.16600   0.50000   0.00000  Uiso   1.00
H50    H     0.54710   0.23852   0.50000   0.00000  Uiso   1.00
H51    H     0.54706   0.30334   0.50000   0.00000  Uiso   1.00
H52    H     0.41617   0.23786   0.50000   0.00000  Uiso   1.00
H53    H     0.41621   0.17304   0.50000   0.00000  Uiso   1.00
H54    H     0.44972   0.30955   0.50000   0.00000  Uiso   1.00
C62    C     0.97190   0.44418   0.50000   0.00000  Uiso   1.00
C63    C     0.90629   0.36449   0.50000   0.00000  Uiso   1.00
N3     N     0.87307   0.32488   0.50000   0.00000  Uiso   1.00
C64    C     0.83675   0.31963   0.50000   0.00000  Uiso   1.00
C65    C     0.79856   0.28013   0.50000   0.00000  Uiso   1.00
C66    C     0.76186   0.28023   0.50000   0.00000  Uiso   1.00
C67    C     0.72507   0.24346   0.50000   0.00000  Uiso   1.00
C68    C     0.72507   0.20676   0.50000   0.00000  Uiso   1.00
C69    C     0.76177   0.20667   0.50000   0.00000  Uiso   1.00
C70    C     0.79856   0.24344   0.50000   0.00000  Uiso   1.00
C71    C     0.68687   0.16725   0.50000   0.00000  Uiso   1.00
N4     N     0.65056   0.16202   0.50000   0.00000  Uiso   1.00
C72    C     0.61733   0.12239   0.50000   0.00000  Uiso   1.00
C73    C     0.55175   0.04270   0.50000   0.00000  Uiso   1.00
C74    C     0.00627   0.48592   0.50000   0.00000  Uiso   1.00
H55    H     0.83400   0.34755   0.50000   0.00000  Uiso   1.00
H56    H     0.76148   0.30858   0.50000   0.00000  Uiso   1.00
H57    H     0.69666   0.24372   0.50000   0.00000  Uiso   1.00
H58    H     0.76214   0.17831   0.50000   0.00000  Uiso   1.00
H59    H     0.82696   0.24317   0.50000   0.00000  Uiso   1.00
H60    H     0.69045   0.14017   0.50000   0.00000  Uiso   1.00
C75    C     0.55582   0.52772   0.50000   0.00000  Uiso   1.00
C76    C     0.63551   0.54180   0.50000   0.00000  Uiso   1.00
N5     N     0.67512   0.54819   0.50000   0.00000  Uiso   1.00
C77    C     0.68037   0.51712   0.50000   0.00000  Uiso   1.00
C78    C     0.71987   0.51843   0.50000   0.00000  Uiso   1.00
C79    C     0.71977   0.48163   0.50000   0.00000  Uiso   1.00
C80    C     0.75654   0.48161   0.50000   0.00000  Uiso   1.00
C81    C     0.79324   0.51831   0.50000   0.00000  Uiso   1.00
C82    C     0.79333   0.55510   0.50000   0.00000  Uiso   1.00
C83    C     0.75656   0.55512   0.50000   0.00000  Uiso   1.00
C84    C     0.83275   0.51962   0.50000   0.00000  Uiso   1.00
N6     N     0.83798   0.48854   0.50000   0.00000  Uiso   1.00
C85    C     0.87761   0.49494   0.50000   0.00000  Uiso   1.00
C86    C     0.95730   0.50905   0.50000   0.00000  Uiso   1.00
C87    C     0.51408   0.52035   0.50000   0.00000  Uiso   1.00
H61    H     0.65245   0.48645   0.50000   0.00000  Uiso   1.00
H62    H     0.69142   0.45290   0.50000   0.00000  Uiso   1.00
H63    H     0.75628   0.45294   0.50000   0.00000  Uiso   1.00
H64    H     0.82169   0.58383   0.50000   0.00000  Uiso   1.00
H65    H     0.75683   0.58379   0.50000   0.00000  Uiso   1.00
H66    H     0.85983   0.55028   0.50000   0.00000  Uiso   1.00
C88    C     0.52772   0.97190   0.50000   0.00000  Uiso   1.00
C89    C     0.54180   0.90629   0.50000   0.00000  Uiso   1.00
N7     N     0.54819   0.87307   0.50000   0.00000  Uiso   1.00
C90    C     0.51712   0.83675   0.50000   0.00000  Uiso   1.00
C91    C     0.51843   0.79856   0.50000   0.00000  Uiso   1.00
C92    C     0.48163   0.76186   0.50000   0.00000  Uiso   1.00
C93    C     0.48161   0.72507   0.50000   0.00000  Uiso   1.00
C94    C     0.51831   0.72507   0.50000   0.00000  Uiso   1.00
C95    C     0.55510   0.76177   0.50000   0.00000  Uiso   1.00
C96    C     0.55512   0.79856   0.50000   0.00000  Uiso   1.00
C97    C     0.51962   0.68687   0.50000   0.00000  Uiso   1.00
N8     N     0.48854   0.65056   0.50000   0.00000  Uiso   1.00
C98    C     0.49494   0.61733   0.50000   0.00000  Uiso   1.00
C99    C     0.50905   0.55175   0.50000   0.00000  Uiso   1.00
C100   C     0.52035   0.00627   0.50000   0.00000  Uiso   1.00
H67    H     0.48645   0.83400   0.50000   0.00000  Uiso   1.00
H68    H     0.45290   0.76148   0.50000   0.00000  Uiso   1.00
H69    H     0.45294   0.69666   0.50000   0.00000  Uiso   1.00
H70    H     0.58383   0.76214   0.50000   0.00000  Uiso   1.00
H71    H     0.58379   0.82696   0.50000   0.00000  Uiso   1.00
H72    H     0.55028   0.69045   0.50000   0.00000  Uiso   1.00
C101   C     0.02810   0.55582   0.50000   0.00000  Uiso   1.00
C102   C     0.09371   0.63551   0.50000   0.00000  Uiso   1.00
N9     N     0.12693   0.67512   0.50000   0.00000  Uiso   1.00
C103   C     0.16325   0.68037   0.50000   0.00000  Uiso   1.00
C104   C     0.20144   0.71987   0.50000   0.00000  Uiso   1.00
C105   C     0.23814   0.71977   0.50000   0.00000  Uiso   1.00
C106   C     0.27493   0.75654   0.50000   0.00000  Uiso   1.00
C107   C     0.27493   0.79324   0.50000   0.00000  Uiso   1.00
C108   C     0.23823   0.79333   0.50000   0.00000  Uiso   1.00
C109   C     0.20144   0.75656   0.50000   0.00000  Uiso   1.00
C110   C     0.31313   0.83275   0.50000   0.00000  Uiso   1.00
N10    N     0.34944   0.83798   0.50000   0.00000  Uiso   1.00
C111   C     0.38267   0.87761   0.50000   0.00000  Uiso   1.00
C112   C     0.44825   0.95730   0.50000   0.00000  Uiso   1.00
C113   C     0.99373   0.51408   0.50000   0.00000  Uiso   1.00
H73    H     0.16600   0.65245   0.50000   0.00000  Uiso   1.00
H74    H     0.23852   0.69142   0.50000   0.00000  Uiso   1.00
H75    H     0.30334   0.75628   0.50000   0.00000  Uiso   1.00
H76    H     0.23786   0.82169   0.50000   0.00000  Uiso   1.00
H77    H     0.17304   0.75683   0.50000   0.00000  Uiso   1.00
H78    H     0.30955   0.85983   0.50000   0.00000  Uiso   1.00
C114   C     0.44418   0.47228   0.50000   0.00000  Uiso   1.00
C115   C     0.36449   0.45820   0.50000   0.00000  Uiso   1.00
N11    N     0.32488   0.45181   0.50000   0.00000  Uiso   1.00
C116   C     0.31963   0.48288   0.50000   0.00000  Uiso   1.00
C117   C     0.28013   0.48157   0.50000   0.00000  Uiso   1.00
C118   C     0.28023   0.51837   0.50000   0.00000  Uiso   1.00
C119   C     0.24346   0.51839   0.50000   0.00000  Uiso   1.00
C120   C     0.20676   0.48169   0.50000   0.00000  Uiso   1.00
C121   C     0.20667   0.44490   0.50000   0.00000  Uiso   1.00
C122   C     0.24344   0.44488   0.50000   0.00000  Uiso   1.00
C123   C     0.16725   0.48038   0.50000   0.00000  Uiso   1.00
N12    N     0.16202   0.51146   0.50000   0.00000  Uiso   1.00
C124   C     0.12239   0.50506   0.50000   0.00000  Uiso   1.00
C125   C     0.04270   0.49095   0.50000   0.00000  Uiso   1.00
C126   C     0.48592   0.47965   0.50000   0.00000  Uiso   1.00
H79    H     0.34755   0.51355   0.50000   0.00000  Uiso   1.00
H80    H     0.30858   0.54710   0.50000   0.00000  Uiso   1.00
H81    H     0.24372   0.54706   0.50000   0.00000  Uiso   1.00
H82    H     0.17831   0.41617   0.50000   0.00000  Uiso   1.00
H83    H     0.24317   0.41621   0.50000   0.00000  Uiso   1.00
H84    H     0.14017   0.44972   0.50000   0.00000  Uiso   1.00
loop_
_geom_bond_atom_site_label_1
_geom_bond_atom_site_label_2
_geom_bond_distance
_geom_bond_site_symmetry_2
_ccdc_geom_bond_type
C1     C2      1.396   .     S
C1     C88     1.412   .     S
C1     H1      1.085   .     S
C2     C89     1.395   .     S
C2     H2      1.085   .     S
C3     H3      1.085   .     S
C3     C4      1.396   .     S
C3     C89     1.396   .     S
C4     H4      1.085   .     S
C4     C88     1.373   .     S
C5     H5      1.085   .     S
C5     C6      1.396   .     S
C5     C98     1.395   .     S
C6     H6      1.085   .     S
C6     C99     1.374   .     S
C7     C8      1.396   .     S
C7     C99     1.410   .     S
C7     H7      1.085   .     S
C8     C98     1.395   .     S
C8     H8      1.085   .     S
C9     C101    1.412   .     S
C9     C10     1.396   .     S
C9     H9      1.085   .     S
C10    C102    1.395   .     S
C10    H10     1.085   .     S
C11    H11     1.085   .     S
C11    C12     1.396   .     S
C11    C102    1.396   .     S
C12    H12     1.085   .     S
C12    C101    1.373   .     S
C13    H13     1.085   .     S
C13    C14     1.396   .     S
C13    C111    1.395   .     S
C14    H14     1.085   .     S
C14    C112    1.374   .     S
C15    C112    1.410   .     S
C15    C16     1.396   .     S
C15    H15     1.085   .     S
C16    C111    1.395   .     S
C16    H16     1.085   .     S
C17    C114    1.412   .     S
C17    C18     1.396   .     S
C17    H17     1.085   .     S
C18    C115    1.395   .     S
C18    H18     1.085   .     S
C19    H19     1.085   .     S
C19    C20     1.396   .     S
C19    C115    1.396   .     S
C20    H20     1.085   .     S
C20    C114    1.373   .     S
C21    C22     1.396   .     S
C21    H21     1.085   .     S
C21    C124    1.395   .     S
C22    H22     1.085   .     S
C22    C125    1.374   .     S
C23    C125    1.410   .     S
C23    C24     1.396   .     S
C23    H23     1.085   .     S
C24    C124    1.395   .     S
C24    H24     1.085   .     S
C25    C49     1.412   .     S
C25    C26     1.396   .     S
C25    H25     1.085   .     S
C26    C50     1.395   .     S
C26    H26     1.085   .     S
C27    C28     1.396   .     S
C27    H27     1.085   .     S
C27    C50     1.396   .     S
C28    H28     1.085   .     S
C28    C49     1.373   .     S
C29    C30     1.396   .     S
C29    H29     1.085   .     S
C29    C59     1.395   .     S
C30    H30     1.085   .     S
C30    C60     1.374   .     S
C31    C60     1.410   .     S
C31    C32     1.396   .     S
C31    H31     1.085   .     S
C32    C59     1.395   .     S
C32    H32     1.085   .     S
C33    C34     1.396   .     S
C33    C62     1.412   .     S
C33    H33     1.085   .     S
C34    C63     1.395   .     S
C34    H34     1.085   .     S
C35    H35     1.085   .     S
C35    C36     1.396   .     S
C35    C63     1.396   .     S
C36    H36     1.085   .     S
C36    C62     1.373   .     S
C37    H37     1.085   .     S
C37    C38     1.396   .     S
C37    C72     1.395   .     S
C38    H38     1.085   .     S
C38    C73     1.374   .     S
C39    C40     1.396   .     S
C39    C73     1.410   .     S
C39    H39     1.085   .     S
C40    C72     1.395   .     S
C40    H40     1.085   .     S
C41    C42     1.396   .     S
C41    C75     1.412   .     S
C41    H41     1.085   .     S
C42    C76     1.395   .     S
C42    H42     1.085   .     S
C43    H43     1.085   .     S
C43    C44     1.396   .     S
C43    C76     1.396   .     S
C44    H44     1.085   .     S
C44    C75     1.373   .     S
C45    H45     1.085   .     S
C45    C46     1.396   .     S
C45    C85     1.395   .     S
C46    H46     1.085   .     S
C46    C86     1.374   .     S
C47    C86     1.410   .     S
C47    C48     1.396   .     S
C47    H47     1.085   .     S
C48    C85     1.395   .     S
C48    H48     1.085   .     S
C50    N1      1.400   .     S
N1     C51     1.292   .     S
C51    C52     1.477   .     S
C51    H49     1.117   .     S
C52    C57     1.394   .     S
C52    C53     1.397   .     S
C53    H50     1.085   .     S
C53    C54     1.398   .     S
C54    H51     1.085   .     S
C54    C55     1.395   .     S
C55    C58     1.477   .     S
C55    C56     1.396   .     S
C56    H52     1.085   .     S
C56    C57     1.398   .     S
C57    H53     1.084   .     S
C58    H54     1.103   .     S
C58    N2      1.292   .     S
N2     C59     1.400   .     S
C60    C126    1.299   .     S
C61    C112    1.299   .     S
C63    N3      1.400   .     S
N3     C64     1.292   .     S
C64    C65     1.477   .     S
C64    H55     1.117   .     S
C65    C66     1.397   .     S
C65    C70     1.394   .     S
C66    H56     1.085   .     S
C66    C67     1.398   .     S
C67    H57     1.085   .     S
C67    C68     1.395   .     S
C68    C71     1.477   .     S
C68    C69     1.396   .     S
C69    H58     1.085   .     S
C69    C70     1.398   .     S
C70    H59     1.084   .     S
C71    N4      1.292   .     S
C71    H60     1.103   .     S
N4     C72     1.400   .     S
C73    C100    1.299   .     S
C74    C125    1.299   .     S
C75    C87     1.466   .     S
C76    N5      1.400   .     S
N5     C77     1.292   .     S
C77    C78     1.477   .     S
C77    H61     1.117   .     S
C78    C83     1.394   .     S
C78    C79     1.397   .     S
C79    H62     1.085   .     S
C79    C80     1.398   .     S
C80    H63     1.085   .     S
C80    C81     1.395   .     S
C81    C84     1.477   .     S
C81    C82     1.396   .     S
C82    H64     1.085   .     S
C82    C83     1.398   .     S
C83    H65     1.084   .     S
C84    N6      1.292   .     S
C84    H66     1.103   .     S
N6     C85     1.400   .     S
C86    C113    1.299   .     S
C87    C99     1.299   .     S
C87    C126    1.372   .     S
C89    N7      1.400   .     S
N7     C90     1.292   .     S
C90    H67     1.117   .     S
C90    C91     1.477   .     S
C91    C92     1.397   .     S
C91    C96     1.394   .     S
C92    H68     1.085   .     S
C92    C93     1.398   .     S
C93    C94     1.395   .     S
C93    H69     1.085   .     S
C94    C95     1.396   .     S
C94    C97     1.477   .     S
C95    C96     1.398   .     S
C95    H70     1.085   .     S
C96    H71     1.084   .     S
C97    N8      1.292   .     S
C97    H72     1.103   .     S
N8     C98     1.400   .     S
C102   N9      1.400   .     S
N9     C103    1.292   .     S
C103   H73     1.117   .     S
C103   C104    1.477   .     S
C104   C105    1.397   .     S
C104   C109    1.394   .     S
C105   C106    1.398   .     S
C105   H74     1.085   .     S
C106   C107    1.395   .     S
C106   H75     1.085   .     S
C107   C108    1.396   .     S
C107   C110    1.477   .     S
C108   C109    1.398   .     S
C108   H76     1.085   .     S
C109   H77     1.084   .     S
C110   H78     1.103   .     S
C110   N10     1.292   .     S
N10    C111    1.400   .     S
C114   C126    1.466   .     S
C115   N11     1.400   .     S
N11    C116    1.292   .     S
C116   C117    1.477   .     S
C116   H79     1.117   .     S
C117   C122    1.394   .     S
C117   C118    1.397   .     S
C118   C119    1.398   .     S
C118   H80     1.085   .     S
C119   H81     1.085   .     S
C119   C120    1.395   .     S
C120   C121    1.396   .     S
C120   C123    1.477   .     S
C121   C122    1.398   .     S
C121   H82     1.085   .     S
C122   H83     1.084   .     S
C123   H84     1.103   .     S
C123   N12     1.292   .     S
N12    C124    1.400   .     S
