data_COF-1
_audit_creation_date              2016-12-13
_audit_creation_method            'Materials Studio'
_symmetry_space_group_name_H-M    'P1'
_symmetry_Int_Tables_number       1
_symmetry_cell_setting            triclinic
loop_
_symmetry_equiv_pos_as_xyz
  x,y,z
_cell_length_a                    15.6529
_cell_length_b                    15.6529
_cell_length_c                    6.7005
_cell_angle_alpha                 90.0000
_cell_angle_beta                  90.0000
_cell_angle_gamma                 120.0000
loop_
_atom_site_label
_atom_site_type_symbol
_atom_site_fract_x
_atom_site_fract_y
_atom_site_fract_z
_atom_site_U_iso_or_equiv
_atom_site_adp_type
_atom_site_occupancy
B1     B     0.05413   0.10826   0.25000   0.00000  Uiso   1.00
O1     O     0.38831   0.77662   0.25000   0.00000  Uiso   1.00
C1     C     0.21953   0.43906   0.25000   0.00000  Uiso   1.00
B2     B     0.89174   0.94587   0.25000   0.00000  Uiso   1.00
O2     O     0.22338   0.61169   0.25000   0.00000  Uiso   1.00
C2     C     0.56094   0.78047   0.25000   0.00000  Uiso   1.00
B3     B     0.05413   0.94587   0.25000   0.00000  Uiso   1.00
O3     O     0.38831   0.61169   0.25000   0.00000  Uiso   1.00
C3     C     0.21953   0.78047   0.25000   0.00000  Uiso   1.00
B4     B     0.94587   0.89174   0.75000   0.00000  Uiso   1.00
O4     O     0.61169   0.22338   0.75000   0.00000  Uiso   1.00
C4     C     0.78047   0.56094   0.75000   0.00000  Uiso   1.00
B5     B     0.10826   0.05413   0.75000   0.00000  Uiso   1.00
O5     O     0.77662   0.38831   0.75000   0.00000  Uiso   1.00
C5     C     0.43906   0.21953   0.75000   0.00000  Uiso   1.00
B6     B     0.94587   0.05413   0.75000   0.00000  Uiso   1.00
O6     O     0.61169   0.38831   0.75000   0.00000  Uiso   1.00
C6     C     0.78047   0.21953   0.75000   0.00000  Uiso   1.00
B7     B     0.44176   0.72088   0.25000   0.00000  Uiso   1.00
B8     B     0.27912   0.72088   0.25000   0.00000  Uiso   1.00
B9     B     0.27912   0.55824   0.25000   0.00000  Uiso   1.00
B10    B     0.55824   0.27912   0.75000   0.00000  Uiso   1.00
B11    B     0.72088   0.27912   0.75000   0.00000  Uiso   1.00
B12    B     0.72088   0.44176   0.75000   0.00000  Uiso   1.00
O7     O     0.10990   0.05495   0.25000   0.00000  Uiso   1.00
O8     O     0.94505   0.05495   0.25000   0.00000  Uiso   1.00
O9     O     0.94505   0.89010   0.25000   0.00000  Uiso   1.00
O10    O     0.89010   0.94505   0.75000   0.00000  Uiso   1.00
O11    O     0.05495   0.94505   0.75000   0.00000  Uiso   1.00
O12    O     0.05495   0.10990   0.75000   0.00000  Uiso   1.00
C7     C     0.11551   0.38512   0.25000   0.00000  Uiso   1.00
C8     C     0.21749   0.28091   0.25000   0.00000  Uiso   1.00
H1     H     0.07394   0.42341   0.25000   0.00000  Uiso   1.00
H2     H     0.25899   0.24251   0.25000   0.00000  Uiso   1.00
C9     C     0.61488   0.73039   0.25000   0.00000  Uiso   1.00
C10    C     0.71909   0.93659   0.25000   0.00000  Uiso   1.00
H3     H     0.57659   0.65052   0.25000   0.00000  Uiso   1.00
H4     H     0.75749   0.01648   0.25000   0.00000  Uiso   1.00
C11    C     0.26961   0.88449   0.25000   0.00000  Uiso   1.00
C12    C     0.06341   0.78251   0.25000   0.00000  Uiso   1.00
H5     H     0.34948   0.92606   0.25000   0.00000  Uiso   1.00
H6     H     0.98352   0.74101   0.25000   0.00000  Uiso   1.00
C13    C     0.88449   0.61488   0.75000   0.00000  Uiso   1.00
C14    C     0.78251   0.71909   0.75000   0.00000  Uiso   1.00
H7     H     0.92606   0.57659   0.75000   0.00000  Uiso   1.00
H8     H     0.74101   0.75749   0.75000   0.00000  Uiso   1.00
C15    C     0.38512   0.26961   0.75000   0.00000  Uiso   1.00
C16    C     0.28091   0.06341   0.75000   0.00000  Uiso   1.00
H9     H     0.42341   0.34948   0.75000   0.00000  Uiso   1.00
H10    H     0.24251   0.98352   0.75000   0.00000  Uiso   1.00
C17    C     0.73039   0.11551   0.75000   0.00000  Uiso   1.00
C18    C     0.93659   0.21749   0.75000   0.00000  Uiso   1.00
H11    H     0.65052   0.07394   0.75000   0.00000  Uiso   1.00
H12    H     0.01648   0.25899   0.75000   0.00000  Uiso   1.00
C19    C     0.38512   0.11551   0.75000   0.00000  Uiso   1.00
C20    C     0.28091   0.21749   0.75000   0.00000  Uiso   1.00
H13    H     0.42341   0.07394   0.75000   0.00000  Uiso   1.00
H14    H     0.24251   0.25899   0.75000   0.00000  Uiso   1.00
C21    C     0.73039   0.61488   0.75000   0.00000  Uiso   1.00
C22    C     0.93659   0.71909   0.75000   0.00000  Uiso   1.00
H15    H     0.65052   0.57659   0.75000   0.00000  Uiso   1.00
H16    H     0.01648   0.75749   0.75000   0.00000  Uiso   1.00
C23    C     0.88449   0.26961   0.75000   0.00000  Uiso   1.00
C24    C     0.78251   0.06341   0.75000   0.00000  Uiso   1.00
H17    H     0.92606   0.34948   0.75000   0.00000  Uiso   1.00
H18    H     0.74101   0.98352   0.75000   0.00000  Uiso   1.00
C25    C     0.61488   0.88449   0.25000   0.00000  Uiso   1.00
C26    C     0.71909   0.78251   0.25000   0.00000  Uiso   1.00
H19    H     0.57659   0.92606   0.25000   0.00000  Uiso   1.00
H20    H     0.75749   0.74101   0.25000   0.00000  Uiso   1.00
C27    C     0.26961   0.38512   0.25000   0.00000  Uiso   1.00
C28    C     0.06341   0.28091   0.25000   0.00000  Uiso   1.00
H21    H     0.34948   0.42341   0.25000   0.00000  Uiso   1.00
H22    H     0.98352   0.24251   0.25000   0.00000  Uiso   1.00
C29    C     0.11551   0.73039   0.25000   0.00000  Uiso   1.00
C30    C     0.21749   0.93659   0.25000   0.00000  Uiso   1.00
H23    H     0.07394   0.65052   0.25000   0.00000  Uiso   1.00
H24    H     0.25899   0.01648   0.25000   0.00000  Uiso   1.00
C31    C     0.11355   0.88645   0.25000   0.00000  Uiso   1.00
C32    C     0.11355   0.22710   0.25000   0.00000  Uiso   1.00
C33    C     0.77290   0.88645   0.25000   0.00000  Uiso   1.00
C34    C     0.88645   0.11355   0.75000   0.00000  Uiso   1.00
C35    C     0.88645   0.77290   0.75000   0.00000  Uiso   1.00
C36    C     0.22710   0.11355   0.75000   0.00000  Uiso   1.00
loop_
_geom_bond_atom_site_label_1
_geom_bond_atom_site_label_2
_geom_bond_distance
_geom_bond_site_symmetry_2
_ccdc_geom_bond_type
B1     O7      1.479   .     S
B1     C32     1.611   .     S
O1     B7      1.480   .     S
O1     B8      1.480   .     S
C1     B9      1.616   .     S
C1     C27     1.410   .     S
C1     C7      1.410   .     S
B2     C33     1.611   .     S
B2     O9      1.479   .     S
O2     B9      1.480   .     S
O2     B8      1.480   .     S
C2     B7      1.616   .     S
C2     C9      1.410   .     S
C2     C25     1.410   .     S
B3     C31     1.611   .     S
O3     B9      1.480   .     S
O3     B7      1.480   .     S
C3     C29     1.410   .     S
C3     B8      1.616   .     S
C3     C11     1.410   .     S
B4     O10     1.479   .     S
B4     C35     1.611   .     S
O4     B10     1.480   .     S
O4     B11     1.480   .     S
C4     C21     1.410   .     S
C4     C13     1.410   .     S
C4     B12     1.616   .     S
B5     O12     1.479   .     S
B5     C36     1.611   .     S
O5     B11     1.480   .     S
O5     B12     1.480   .     S
C5     C15     1.410   .     S
C5     B10     1.616   .     S
C5     C19     1.410   .     S
B6     C34     1.611   .     S
O6     B10     1.480   .     S
O6     B12     1.480   .     S
C6     B11     1.616   .     S
C6     C23     1.410   .     S
C6     C17     1.410   .     S
C7     C28     1.413   .     S
C7     H1      1.083   .     S
C8     C27     1.413   .     S
C8     C32     1.409   .     S
C8     H2      1.083   .     S
C9     C26     1.413   .     S
C9     H3      1.083   .     S
C10    C33     1.409   .     S
C10    C25     1.413   .     S
C11    H5      1.083   .     S
C11    C30     1.413   .     S
C12    C29     1.413   .     S
C12    C31     1.409   .     S
C13    H7      1.083   .     S
C13    C22     1.413   .     S
C14    H8      1.083   .     S
C14    C35     1.409   .     S
C14    C21     1.413   .     S
C15    H9      1.083   .     S
C15    C20     1.413   .     S
C16    C19     1.413   .     S
C16    C36     1.409   .     S
C17    H11     1.083   .     S
C17    C24     1.413   .     S
C18    C23     1.413   .     S
C18    C34     1.409   .     S
C19    H13     1.083   .     S
C20    H14     1.083   .     S
C20    C36     1.409   .     S
C21    H15     1.083   .     S
C22    C35     1.409   .     S
C23    H17     1.083   .     S
C24    C34     1.409   .     S
C25    H19     1.083   .     S
C26    H20     1.083   .     S
C26    C33     1.409   .     S
C27    H21     1.083   .     S
C28    C32     1.409   .     S
C29    H23     1.083   .     S
C30    C31     1.409   .     S
