data_COF-5
_audit_creation_date              2016-12-13
_audit_creation_method            'Materials Studio'
_symmetry_space_group_name_H-M    'P1'
_symmetry_Int_Tables_number       1
_symmetry_cell_setting            triclinic
loop_
_symmetry_equiv_pos_as_xyz
  x,y,z
_cell_length_a                    29.7010
_cell_length_b                    29.7010
_cell_length_c                    3.4602
_cell_angle_alpha                 90.0000
_cell_angle_beta                  90.0000
_cell_angle_gamma                 120.0000
loop_
_atom_site_label
_atom_site_type_symbol
_atom_site_fract_x
_atom_site_fract_y
_atom_site_fract_z
_atom_site_U_iso_or_equiv
_atom_site_adp_type
_atom_site_occupancy
B1     B     0.10820   0.55142   0.50000   0.00000  Uiso   1.00
B2     B     0.43785   0.55142   0.50000   0.00000  Uiso   1.00
B3     B     0.43785   0.88106   0.50000   0.00000  Uiso   1.00
B4     B     0.88106   0.43785   0.50000   0.00000  Uiso   1.00
B5     B     0.55142   0.43785   0.50000   0.00000  Uiso   1.00
B6     B     0.55142   0.10820   0.50000   0.00000  Uiso   1.00
O1     O     0.60768   0.13892   0.50000   0.00000  Uiso   1.00
C1     C     0.46775   0.02151   0.50000   0.00000  Uiso   1.00
C2     C     0.61413   0.18791   0.50000   0.00000  Uiso   1.00
C3     C     0.66104   0.23359   0.50000   0.00000  Uiso   1.00
C4     C     0.66150   0.28084   0.50000   0.00000  Uiso   1.00
O2     O     0.85034   0.46339   0.50000   0.00000  Uiso   1.00
C5     C     0.96775   0.44087   0.50000   0.00000  Uiso   1.00
C6     C     0.80135   0.42085   0.50000   0.00000  Uiso   1.00
C7     C     0.75567   0.42208   0.50000   0.00000  Uiso   1.00
C8     C     0.70842   0.37529   0.50000   0.00000  Uiso   1.00
O3     O     0.52587   0.38158   0.50000   0.00000  Uiso   1.00
C9     C     0.54839   0.52151   0.50000   0.00000  Uiso   1.00
C10    C     0.56841   0.37513   0.50000   0.00000  Uiso   1.00
C11    C     0.56718   0.32822   0.50000   0.00000  Uiso   1.00
C12    C     0.61397   0.32776   0.50000   0.00000  Uiso   1.00
O4     O     0.38158   0.85034   0.50000   0.00000  Uiso   1.00
C13    C     0.52151   0.96775   0.50000   0.00000  Uiso   1.00
C14    C     0.37513   0.80135   0.50000   0.00000  Uiso   1.00
C15    C     0.32822   0.75567   0.50000   0.00000  Uiso   1.00
C16    C     0.32776   0.70842   0.50000   0.00000  Uiso   1.00
O5     O     0.13892   0.52587   0.50000   0.00000  Uiso   1.00
C17    C     0.02151   0.54839   0.50000   0.00000  Uiso   1.00
C18    C     0.18791   0.56841   0.50000   0.00000  Uiso   1.00
C19    C     0.23359   0.56718   0.50000   0.00000  Uiso   1.00
C20    C     0.28084   0.61397   0.50000   0.00000  Uiso   1.00
O6     O     0.46339   0.60768   0.50000   0.00000  Uiso   1.00
C21    C     0.44087   0.46775   0.50000   0.00000  Uiso   1.00
C22    C     0.42085   0.61413   0.50000   0.00000  Uiso   1.00
C23    C     0.42208   0.66104   0.50000   0.00000  Uiso   1.00
C24    C     0.37529   0.66150   0.50000   0.00000  Uiso   1.00
O7     O     0.13892   0.60768   0.50000   0.00000  Uiso   1.00
C25    C     0.02151   0.46775   0.50000   0.00000  Uiso   1.00
C26    C     0.18791   0.61413   0.50000   0.00000  Uiso   1.00
C27    C     0.23359   0.66104   0.50000   0.00000  Uiso   1.00
C28    C     0.28084   0.66150   0.50000   0.00000  Uiso   1.00
O8     O     0.46339   0.85034   0.50000   0.00000  Uiso   1.00
C29    C     0.44087   0.96775   0.50000   0.00000  Uiso   1.00
C30    C     0.42085   0.80135   0.50000   0.00000  Uiso   1.00
C31    C     0.42208   0.75567   0.50000   0.00000  Uiso   1.00
C32    C     0.37529   0.70842   0.50000   0.00000  Uiso   1.00
O9     O     0.38158   0.52587   0.50000   0.00000  Uiso   1.00
C33    C     0.52151   0.54839   0.50000   0.00000  Uiso   1.00
C34    C     0.37513   0.56841   0.50000   0.00000  Uiso   1.00
C35    C     0.32822   0.56718   0.50000   0.00000  Uiso   1.00
C36    C     0.32776   0.61397   0.50000   0.00000  Uiso   1.00
O10    O     0.85034   0.38158   0.50000   0.00000  Uiso   1.00
C37    C     0.96775   0.52151   0.50000   0.00000  Uiso   1.00
C38    C     0.80135   0.37513   0.50000   0.00000  Uiso   1.00
C39    C     0.75567   0.32822   0.50000   0.00000  Uiso   1.00
C40    C     0.70842   0.32776   0.50000   0.00000  Uiso   1.00
O11    O     0.52587   0.13892   0.50000   0.00000  Uiso   1.00
C41    C     0.54839   0.02151   0.50000   0.00000  Uiso   1.00
C42    C     0.56841   0.18791   0.50000   0.00000  Uiso   1.00
C43    C     0.56718   0.23359   0.50000   0.00000  Uiso   1.00
C44    C     0.61397   0.28084   0.50000   0.00000  Uiso   1.00
O12    O     0.60768   0.46339   0.50000   0.00000  Uiso   1.00
C45    C     0.46775   0.44087   0.50000   0.00000  Uiso   1.00
C46    C     0.61413   0.42085   0.50000   0.00000  Uiso   1.00
C47    C     0.66104   0.42208   0.50000   0.00000  Uiso   1.00
C48    C     0.66150   0.37529   0.50000   0.00000  Uiso   1.00
C49    C     0.94080   0.46772   0.50000   0.00000  Uiso   1.00
C50    C     0.52155   0.46772   0.50000   0.00000  Uiso   1.00
C51    C     0.52155   0.04846   0.50000   0.00000  Uiso   1.00
C52    C     0.04846   0.52155   0.50000   0.00000  Uiso   1.00
C53    C     0.46772   0.52155   0.50000   0.00000  Uiso   1.00
C54    C     0.46772   0.94080   0.50000   0.00000  Uiso   1.00
H1     H     0.44734   0.04184   0.50000   0.00000  Uiso   1.00
H2     H     0.69585   0.23265   0.50000   0.00000  Uiso   1.00
H3     H     0.94742   0.40013   0.50000   0.00000  Uiso   1.00
H4     H     0.75661   0.45783   0.50000   0.00000  Uiso   1.00
H5     H     0.58914   0.54192   0.50000   0.00000  Uiso   1.00
H6     H     0.53144   0.29341   0.50000   0.00000  Uiso   1.00
H7     H     0.54192   0.94742   0.50000   0.00000  Uiso   1.00
H8     H     0.29341   0.75661   0.50000   0.00000  Uiso   1.00
H9     H     0.04184   0.58913   0.50000   0.00000  Uiso   1.00
H10    H     0.23265   0.53144   0.50000   0.00000  Uiso   1.00
H11    H     0.40013   0.44734   0.50000   0.00000  Uiso   1.00
H12    H     0.45783   0.69585   0.50000   0.00000  Uiso   1.00
H13    H     0.04184   0.44734   0.50000   0.00000  Uiso   1.00
H14    H     0.23265   0.69585   0.50000   0.00000  Uiso   1.00
H15    H     0.40013   0.94742   0.50000   0.00000  Uiso   1.00
H16    H     0.45783   0.75661   0.50000   0.00000  Uiso   1.00
H17    H     0.54192   0.58913   0.50000   0.00000  Uiso   1.00
H18    H     0.29341   0.53144   0.50000   0.00000  Uiso   1.00
H19    H     0.94742   0.54192   0.50000   0.00000  Uiso   1.00
H20    H     0.75661   0.29341   0.50000   0.00000  Uiso   1.00
H21    H     0.58914   0.04184   0.50000   0.00000  Uiso   1.00
H22    H     0.53144   0.23265   0.50000   0.00000  Uiso   1.00
H23    H     0.44734   0.40013   0.50000   0.00000  Uiso   1.00
H24    H     0.69585   0.45783   0.50000   0.00000  Uiso   1.00
loop_
_geom_bond_atom_site_label_1
_geom_bond_atom_site_label_2
_geom_bond_distance
_geom_bond_site_symmetry_2
_ccdc_geom_bond_type
B1     O7      1.449   .     S
B1     O5      1.449   .     S
B1     C52     1.537   .     S
B2     O6      1.449   .     S
B2     O9      1.449   .     S
B2     C53     1.537   .     S
B3     O4      1.449   .     S
B3     O8      1.449   .     S
B3     C54     1.537   .     S
B4     C49     1.537   .     S
B4     O2      1.449   .     S
B4     O10     1.449   .     S
B5     C50     1.537   .     S
B5     O12     1.449   .     S
B5     O3      1.449   .     S
B6     O11     1.449   .     S
B6     O1      1.449   .     S
B6     C51     1.537   .     S
O1     C2      1.369   .     S
C1     H1      1.048   .     S
C1     C51     1.384   .     S
C2     C42     1.358   .     S
C2     C3      1.375   .     S
C3     H2      1.048   .     S
C3     C4      1.397   .     S
C4     C44     1.412   .     S
C4     C40     1.394   .     S
O2     C6      1.369   .     S
C5     C49     1.384   .     S
C5     H3      1.048   .     S
C6     C7      1.375   .     S
C6     C38     1.358   .     S
C7     H4      1.048   .     S
C7     C8      1.397   .     S
C8     C48     1.394   .     S
C8     C40     1.412   .     S
O3     C10     1.369   .     S
C9     C33     1.383   .     S
C9     H5      1.048   .     S
C9     C50     1.384   .     S
C10    C46     1.358   .     S
C10    C11     1.375   .     S
C11    H6      1.048   .     S
C11    C12     1.397   .     S
C12    C44     1.394   .     S
C12    C48     1.412   .     S
O4     C14     1.369   .     S
C13    C54     1.384   .     S
C13    H7      1.048   .     S
C14    C30     1.358   .     S
C14    C15     1.375   .     S
C15    C16     1.397   .     S
C15    H8      1.048   .     S
C16    C32     1.412   .     S
C16    C28     1.394   .     S
O5     C18     1.369   .     S
C17    C52     1.384   .     S
C17    H9      1.048   .     S
C18    C26     1.358   .     S
C18    C19     1.375   .     S
C19    C20     1.397   .     S
C19    H10     1.048   .     S
C20    C36     1.394   .     S
C20    C28     1.412   .     S
O6     C22     1.369   .     S
C21    H11     1.048   .     S
C21    C45     1.383   .     S
C21    C53     1.384   .     S
C22    C34     1.358   .     S
C22    C23     1.375   .     S
C23    C24     1.397   .     S
C23    H12     1.048   .     S
C24    C32     1.394   .     S
C24    C36     1.412   .     S
O7     C26     1.369   .     S
C25    H13     1.048   .     S
C25    C52     1.384   .     S
C26    C27     1.375   .     S
C27    C28     1.397   .     S
C27    H14     1.048   .     S
O8     C30     1.369   .     S
C29    C54     1.384   .     S
C29    H15     1.048   .     S
C30    C31     1.375   .     S
C31    C32     1.397   .     S
C31    H16     1.048   .     S
O9     C34     1.369   .     S
C33    C53     1.384   .     S
C33    H17     1.048   .     S
C34    C35     1.375   .     S
C35    C36     1.397   .     S
C35    H18     1.048   .     S
O10    C38     1.369   .     S
C37    H19     1.048   .     S
C37    C49     1.384   .     S
C38    C39     1.375   .     S
C39    C40     1.397   .     S
C39    H20     1.048   .     S
O11    C42     1.369   .     S
C41    H21     1.048   .     S
C41    C51     1.384   .     S
C42    C43     1.375   .     S
C43    H22     1.048   .     S
C43    C44     1.397   .     S
O12    C46     1.369   .     S
C45    C50     1.384   .     S
C45    H23     1.048   .     S
C46    C47     1.375   .     S
C47    H24     1.048   .     S
C47    C48     1.397   .     S
