data_COF-66-right
_audit_creation_date              2016-12-13
_audit_creation_method            'Materials Studio'
_symmetry_space_group_name_H-M    'CMMM'
_symmetry_Int_Tables_number       65
_symmetry_cell_setting            orthorhombic
loop_
_symmetry_equiv_pos_as_xyz
  x,y,z
  -x,-y,z
  -x,y,-z
  x,-y,-z
  -x,-y,-z
  x,y,-z
  x,-y,z
  -x,y,z
  x+1/2,y+1/2,z
  -x+1/2,-y+1/2,z
  -x+1/2,y+1/2,-z
  x+1/2,-y+1/2,-z
  -x+1/2,-y+1/2,-z
  x+1/2,y+1/2,-z
  x+1/2,-y+1/2,z
  -x+1/2,y+1/2,z
_cell_length_a                    42.8183
_cell_length_b                    42.1056
_cell_length_c                    7.3926
_cell_angle_alpha                 90.0000
_cell_angle_beta                  90.0000
_cell_angle_gamma                 90.0000
loop_
_atom_site_label
_atom_site_type_symbol
_atom_site_fract_x
_atom_site_fract_y
_atom_site_fract_z
_atom_site_U_iso_or_equiv
_atom_site_adp_type
_atom_site_occupancy
C1     C     0.29117   0.29061  -2.19225   0.00000  Uiso   1.00
C2     C     0.27058   0.27030  -2.09672   0.00000  Uiso   1.00
H3     H     0.29184   0.29127  -2.33008   0.00000  Uiso   1.00
C4     C     0.09309   0.09523  -4.16486   0.00000  Uiso   1.00
C5     C     0.11668   0.11851  -4.16476   0.00000  Uiso   1.00
O6     O     0.16764   0.16877  -3.15965   0.00000  Uiso   1.00
C7     C     0.31127   0.31043  -2.09439   0.00000  Uiso   1.00
H8     H     0.08467   0.08693  -4.28569   0.00000  Uiso   1.00
H9     H     0.12507   0.12679  -4.28584   0.00000  Uiso   1.00
C10    C     0.56753   0.47342  -0.00000   0.00000  Uiso   1.00
C11    C     0.59920   0.48413  -0.00000   0.00000  Uiso   1.00
H12    H     0.61875   0.47022  -0.00000   0.00000  Uiso   1.00
C13    C     0.52632   0.43052  -0.00000   0.00000  Uiso   1.00
C14    C     0.51642   0.39894  -0.00000   0.00000  Uiso   1.00
H15    H     0.53016   0.37909  -0.00000   0.00000  Uiso   1.00
C16    C     0.55784   0.44044  -0.00000   0.00000  Uiso   1.00
N17    N     0.54923   0.50000   0.00000   0.00000  Uiso   1.00
H18    H     0.52660   0.50000   0.00000   0.00000  Uiso   1.00
N19    N     0.50000   0.44890  -0.00000   0.00000  Uiso   1.00
C20    C     0.25000   0.25000  -3.19088   0.00000  Uiso   1.00
H21    H     0.25000   0.25000  -3.32926   0.00000  Uiso   1.00
C22    C     0.41922   0.41710  -1.00000   0.00000  Uiso   1.00
C23    C     0.37164   0.63090  -1.00000   0.00000  Uiso   1.00
B24    B     0.34665   0.65554  -1.00000   0.00000  Uiso   1.00
loop_
_geom_bond_atom_site_label_1
_geom_bond_atom_site_label_2
_geom_bond_distance
_geom_bond_site_symmetry_2
_ccdc_geom_bond_type
C1     C7      1.400   .     A
C1     H3      1.020   .     S
C1     C2      1.417   .     A
C2     C2      1.430   6_551 A
C2     C20     1.411   1_556 A
C4     H8      1.025   .     S
C4     C5      1.408   .     A
C4     C22     1.426   10_552 A
C4     C22     1.426   10_552 A
C5     H9      1.026   .     S
C5     C23     1.416   11_540 A
O6     C7      1.348   10_554 S
O6     B24     1.441   11_541 S
O6     C7      1.348   10_554 S
C7     O6      1.348   10_556 S
C7     C7      1.396   6_551 A
C7     O6      1.348   10_556 S
C10    N17     1.366   .     S
C10    C11     1.429   .     S
C10    C16     1.449   .     D
C11    H12     1.022   .     S
C11    C11     1.337   4_565 D
C13    N19     1.367   .     S
C13    C16     1.413   .     D
C13    C14     1.395   .     S
C14    H15     1.022   .     S
C14    C14     1.407   3_655 D
C16    C22     1.389   3_654 S
N17    C10     1.366   4_565 S
N17    H18     0.969   .     S
N19    C13     1.367   3_655 S
C20    C2      1.411   10_554 A
C20    C2      1.411   1_554 A
C20    H21     1.023   .     S
C22    C4      1.426   13_550 A
C22    C4      1.426   10_558 A
C22    C4      1.426   10_558 A
C22    C4      1.426   13_550 A
C22    C16     1.389   3_654 S
C23    C5      1.416   11_550 A
C23    C5      1.416   16_558 A
C23    B24     1.491   .     S
B24    O6      1.441   11_551 S
B24    O6      1.441   16_557 S
