data_COF-16A
_audit_creation_date              2016-12-13
_audit_creation_method            'Materials Studio'
_symmetry_space_group_name_H-M    'P1'
_symmetry_Int_Tables_number       1
_symmetry_cell_setting            triclinic
loop_
_symmetry_equiv_pos_as_xyz
  x,y,z
_cell_length_a                    21.4918
_cell_length_b                    4.0186
_cell_length_c                    21.4899
_cell_angle_alpha                 90.0000
_cell_angle_beta                  119.9915
_cell_angle_gamma                 90.0000
loop_
_atom_site_label
_atom_site_type_symbol
_atom_site_fract_x
_atom_site_fract_y
_atom_site_fract_z
_atom_site_U_iso_or_equiv
_atom_site_adp_type
_atom_site_occupancy
C1     C     0.00009   0.50000   0.56758   0.00000  Uiso   1.00
C2     C     0.56761   0.50000   0.99981   0.00000  Uiso   1.00
C3     C     0.43240   0.50000   0.43234   0.00000  Uiso   1.00
C4     C     0.00012   0.50000   0.43232   0.00000  Uiso   1.00
C5     C     0.56764   0.50000   0.56761   0.00000  Uiso   1.00
C6     C     0.06435   0.50000   0.56477   0.00000  Uiso   1.00
C7     C     0.50047   0.50000   0.93560   0.00000  Uiso   1.00
C8     C     0.43521   0.50000   0.49942   0.00000  Uiso   1.00
C9     C     0.93580   0.50000   0.43512   0.00000  Uiso   1.00
C10    C     0.49962   0.50000   0.06427   0.00000  Uiso   1.00
C11    C     0.56489   0.50000   0.50050   0.00000  Uiso   1.00
O12    O     0.13227   0.50000   0.62076   0.00000  Uiso   1.00
O13    O     0.48855   0.50000   0.86767   0.00000  Uiso   1.00
O14    O     0.37921   0.50000   0.51135   0.00000  Uiso   1.00
O15    O     0.86785   0.50000   0.37915   0.00000  Uiso   1.00
O16    O     0.51155   0.50000   0.13220   0.00000  Uiso   1.00
O17    O     0.62086   0.50000   0.48852   0.00000  Uiso   1.00
C18    C     0.56496   0.50000   0.06422   0.00000  Uiso   1.00
C19    C     0.49951   0.50000   0.43512   0.00000  Uiso   1.00
C20    C     0.93578   0.50000   0.50051   0.00000  Uiso   1.00
C21    C     0.43513   0.50000   0.93565   0.00000  Uiso   1.00
C22    C     0.50055   0.50000   0.56477   0.00000  Uiso   1.00
C23    C     0.06437   0.50000   0.49942   0.00000  Uiso   1.00
O24    O     0.62092   0.50000   0.13217   0.00000  Uiso   1.00
O25    O     0.51151   0.50000   0.37915   0.00000  Uiso   1.00
O26    O     0.86783   0.50000   0.48852   0.00000  Uiso   1.00
O27    O     0.37917   0.50000   0.86770   0.00000  Uiso   1.00
O28    O     0.48860   0.50000   0.62076   0.00000  Uiso   1.00
O29    O     0.13229   0.50000   0.51135   0.00000  Uiso   1.00
C30    C     0.25708   0.50000   0.62846   0.00000  Uiso   1.00
C31    C     0.37147   0.50000   0.74286   0.00000  Uiso   1.00
C32    C     0.37149   0.50000   0.62846   0.00000  Uiso   1.00
C33    C     0.74302   0.50000   0.37141   0.00000  Uiso   1.00
C34    C     0.62863   0.50000   0.25700   0.00000  Uiso   1.00
C35    C     0.62861   0.50000   0.37142   0.00000  Uiso   1.00
B36    B     0.17702   0.50000   0.58843   0.00000  Uiso   1.00
B37    B     0.41149   0.50000   0.82293   0.00000  Uiso   1.00
B38    B     0.41153   0.50000   0.58843   0.00000  Uiso   1.00
B39    B     0.82308   0.50000   0.41145   0.00000  Uiso   1.00
B40    B     0.58861   0.50000   0.17694   0.00000  Uiso   1.00
B41    B     0.58857   0.50000   0.41145   0.00000  Uiso   1.00
C42    C     0.59124   0.50000   0.29552   0.00000  Uiso   1.00
C43    C     0.70450   0.50000   0.40880   0.00000  Uiso   1.00
C44    C     0.70452   0.50000   0.29552   0.00000  Uiso   1.00
C45    C     0.40886   0.50000   0.70435   0.00000  Uiso   1.00
C46    C     0.29559   0.50000   0.59107   0.00000  Uiso   1.00
C47    C     0.29558   0.50000   0.70435   0.00000  Uiso   1.00
H48    H     0.73211   0.50000   0.46404   0.00000  Uiso   1.00
H49    H     0.73214   0.50000   0.26789   0.00000  Uiso   1.00
H50    H     0.53599   0.50000   0.26789   0.00000  Uiso   1.00
H51    H     0.26798   0.50000   0.53581   0.00000  Uiso   1.00
H52    H     0.26795   0.50000   0.73198   0.00000  Uiso   1.00
H53    H     0.46411   0.50000   0.73198   0.00000  Uiso   1.00
H54    H     0.36155   0.28224   0.02984   0.00000  Uiso   1.00
H55    H     0.36155   0.71776   0.02984   0.00000  Uiso   1.00
H56    H     0.02986   0.71775   0.36134   0.00000  Uiso   1.00
H57    H     0.02986   0.28225   0.36134   0.00000  Uiso   1.00
H58    H     0.33172   0.28225   0.36132   0.00000  Uiso   1.00
H59    H     0.33172   0.71775   0.36132   0.00000  Uiso   1.00
H60    H     0.02975   0.28224   0.66828   0.00000  Uiso   1.00
H61    H     0.02975   0.71776   0.66828   0.00000  Uiso   1.00
H62    H     0.63860   0.71775   0.66832   0.00000  Uiso   1.00
H63    H     0.63860   0.28225   0.66832   0.00000  Uiso   1.00
H64    H     0.63853   0.28225   0.97000   0.00000  Uiso   1.00
H65    H     0.63853   0.71776   0.97000   0.00000  Uiso   1.00
C66    C     0.00119   0.50000   0.63716   0.00000  Uiso   1.00
C67    C     0.63602   0.50000   0.99860   0.00000  Uiso   1.00
C68    C     0.36284   0.50000   0.36387   0.00000  Uiso   1.00
H69    H     0.31740   0.50000   0.94701   0.00000  Uiso   1.00
C70    C     0.00128   0.50000   0.36387   0.00000  Uiso   1.00
H71    H     0.94707   0.50000   0.31730   0.00000  Uiso   1.00
H72    H     0.37049   0.50000   0.31727   0.00000  Uiso   1.00
C73    C     0.36407   0.50000   0.00125   0.00000  Uiso   1.00
H74    H     0.94697   0.50000   0.62955   0.00000  Uiso   1.00
C75    C     0.63608   0.50000   0.63720   0.00000  Uiso   1.00
H76    H     0.68269   0.50000   0.62959   0.00000  Uiso   1.00
H77    H     0.68269   0.50000   0.05283   0.00000  Uiso   1.00
C78    C     0.43249   0.50000   0.00006   0.00000  Uiso   1.00
loop_
_geom_bond_atom_site_label_1
_geom_bond_atom_site_label_2
_geom_bond_distance
_geom_bond_site_symmetry_2
_ccdc_geom_bond_type
C1     C6      1.413   .     S
C1     C66     1.484   .     S
C2     C67     1.484   .     S
C2     C7      1.413   .     S
C3     C19     1.413   .     S
C3     C68     1.484   .     S
C3     C8      1.412   .     S
C4     C70     1.484   .     S
C4     C23     1.412   .     S
C5     C11     1.413   .     S
C5     C22     1.412   .     S
C5     C75     1.484   .     S
C6     C23     1.404   .     S
C6     O12     1.350   .     S
C7     O13     1.350   .     S
C7     C21     1.405   .     S
C8     C22     1.404   .     S
C8     O14     1.350   .     S
C9     O15     1.350   .     S
C9     C20     1.405   .     S
C10    C78     1.413   .     S
C10    C18     1.405   .     S
C10    O16     1.350   .     S
C11    O17     1.350   .     S
C11    C19     1.405   .     S
O12    B36     1.441   .     S
O13    B37     1.441   .     S
O14    B38     1.441   .     S
O15    B39     1.441   .     S
O16    B40     1.441   .     S
O17    B41     1.441   .     S
C18    O24     1.350   .     S
C19    O25     1.350   .     S
C20    O26     1.350   .     S
C21    O27     1.350   .     S
C22    O28     1.350   .     S
C23    O29     1.350   .     S
O24    B40     1.441   .     S
O25    B41     1.441   .     S
O26    B39     1.441   .     S
O27    B37     1.441   .     S
O28    B38     1.441   .     S
O29    B36     1.441   .     S
C30    B36     1.490   .     S
C30    C46     1.413   .     S
C30    C47     1.413   .     S
C31    C45     1.413   .     S
C31    C47     1.413   .     S
C31    B37     1.490   .     S
C32    C46     1.413   .     S
C32    B38     1.490   .     S
C32    C45     1.413   .     S
C33    C44     1.413   .     S
C33    C43     1.413   .     S
C33    B39     1.490   .     S
C34    B40     1.490   .     S
C34    C44     1.413   .     S
C34    C42     1.413   .     S
C35    C42     1.413   .     S
C35    B41     1.490   .     S
C35    C43     1.413   .     S
C42    H50     1.028   .     S
C43    H48     1.028   .     S
C44    H49     1.028   .     S
C45    H53     1.028   .     S
C46    H51     1.028   .     S
C47    H52     1.028   .     S
H54    C73     1.086   .     S
H55    C73     1.086   .     S
H56    C70     1.086   .     S
H57    C70     1.086   .     S
H58    C68     1.086   .     S
H59    C68     1.086   .     S
H60    C66     1.086   .     S
H61    C66     1.086   .     S
H62    C75     1.086   .     S
H63    C75     1.086   .     S
H64    C67     1.086   .     S
H65    C67     1.086   .     S
C68    H72     1.093   .     S
C73    C78     1.484   .     S
C75    H76     1.093   .     S
