data_COF-300
_audit_creation_date              2016-12-13
_audit_creation_method            'Materials Studio'
_symmetry_space_group_name_H-M    'P1'
_symmetry_Int_Tables_number       1
_symmetry_cell_setting            triclinic
loop_
_symmetry_equiv_pos_as_xyz
  x,y,z
_cell_length_a                    28.1270
_cell_length_b                    28.1270
_cell_length_c                    8.8790
_cell_angle_alpha                 90.0000
_cell_angle_beta                  90.0000
_cell_angle_gamma                 90.0000
loop_
_atom_site_label
_atom_site_type_symbol
_atom_site_fract_x
_atom_site_fract_y
_atom_site_fract_z
_atom_site_U_iso_or_equiv
_atom_site_adp_type
_atom_site_occupancy
C1     C     0.46180   0.46990   0.02490   0.00000  Uiso   1.00
C2     C     0.49370   0.45870   0.92280   0.00000  Uiso   1.00
C3     C     0.48640   0.41800   0.84690   0.00000  Uiso   1.00
C4     C     0.53200   0.48930   0.89870   0.00000  Uiso   1.00
N1     N     0.51670   0.40600   0.74840   0.00000  Uiso   1.00
C5     C     0.51190   0.36670   0.65920   0.00000  Uiso   1.00
C6     C     0.55130   0.35290   0.58520   0.00000  Uiso   1.00
C7     C     0.54820   0.31580   0.49390   0.00000  Uiso   1.00
C8     C     0.50470   0.29270   0.47040   0.00000  Uiso   1.00
C9     C     0.46570   0.30570   0.54980   0.00000  Uiso   1.00
C10    C     0.46890   0.34260   0.64120   0.00000  Uiso   1.00
H1     H     0.43180   0.44710   0.04590   0.00000  Uiso   1.00
H2     H     0.45630   0.39570   0.86890   0.00000  Uiso   1.00
H3     H     0.55740   0.48190   0.82080   0.00000  Uiso   1.00
H4     H     0.58490   0.37060   0.59960   0.00000  Uiso   1.00
H5     H     0.58030   0.30520   0.44440   0.00000  Uiso   1.00
H6     H     0.43220   0.28740   0.53960   0.00000  Uiso   1.00
H7     H     0.43740   0.35270   0.69570   0.00000  Uiso   1.00
C11    C     0.96180   0.96990   0.52490   0.00000  Uiso   1.00
C12    C     0.99370   0.95870   0.42280   0.00000  Uiso   1.00
C13    C     0.98640   0.91800   0.34690   0.00000  Uiso   1.00
C14    C     0.03200   0.98930   0.39870   0.00000  Uiso   1.00
N2     N     0.01670   0.90600   0.24840   0.00000  Uiso   1.00
C15    C     0.01190   0.86670   0.15920   0.00000  Uiso   1.00
C16    C     0.05130   0.85290   0.08520   0.00000  Uiso   1.00
C17    C     0.04820   0.81580   0.99390   0.00000  Uiso   1.00
C18    C     0.00470   0.79270   0.97040   0.00000  Uiso   1.00
C19    C     0.96570   0.80570   0.04980   0.00000  Uiso   1.00
C20    C     0.96890   0.84260   0.14120   0.00000  Uiso   1.00
H8     H     0.93180   0.94710   0.54590   0.00000  Uiso   1.00
H9     H     0.95630   0.89570   0.36890   0.00000  Uiso   1.00
H10    H     0.05740   0.98190   0.32080   0.00000  Uiso   1.00
H11    H     0.08490   0.87060   0.09960   0.00000  Uiso   1.00
H12    H     0.08030   0.80520   0.94440   0.00000  Uiso   1.00
H13    H     0.93220   0.78740   0.03960   0.00000  Uiso   1.00
H14    H     0.93740   0.85270   0.19570   0.00000  Uiso   1.00
C21    C     0.03820   0.53010   0.52490   0.00000  Uiso   1.00
C22    C     0.00630   0.54130   0.42280   0.00000  Uiso   1.00
C23    C     0.01360   0.58200   0.34690   0.00000  Uiso   1.00
C24    C     0.96800   0.51070   0.39870   0.00000  Uiso   1.00
N3     N     0.98330   0.59400   0.24840   0.00000  Uiso   1.00
C25    C     0.98810   0.63330   0.15920   0.00000  Uiso   1.00
C26    C     0.94870   0.64710   0.08520   0.00000  Uiso   1.00
C27    C     0.95180   0.68420   0.99390   0.00000  Uiso   1.00
C28    C     0.99530   0.70730   0.97040   0.00000  Uiso   1.00
C29    C     0.03430   0.69430   0.04980   0.00000  Uiso   1.00
C30    C     0.03110   0.65740   0.14120   0.00000  Uiso   1.00
H15    H     0.06820   0.55290   0.54590   0.00000  Uiso   1.00
H16    H     0.04370   0.60430   0.36890   0.00000  Uiso   1.00
H17    H     0.94260   0.51810   0.32080   0.00000  Uiso   1.00
H18    H     0.91510   0.62940   0.09960   0.00000  Uiso   1.00
H19    H     0.91970   0.69480   0.94440   0.00000  Uiso   1.00
H20    H     0.06780   0.71260   0.03960   0.00000  Uiso   1.00
H21    H     0.06260   0.64730   0.19570   0.00000  Uiso   1.00
C31    C     0.53820   0.03010   0.02490   0.00000  Uiso   1.00
C32    C     0.50630   0.04130   0.92280   0.00000  Uiso   1.00
C33    C     0.51360   0.08200   0.84690   0.00000  Uiso   1.00
C34    C     0.46800   0.01070   0.89870   0.00000  Uiso   1.00
N4     N     0.48330   0.09400   0.74840   0.00000  Uiso   1.00
C35    C     0.48810   0.13330   0.65920   0.00000  Uiso   1.00
C36    C     0.44870   0.14710   0.58520   0.00000  Uiso   1.00
C37    C     0.45180   0.18420   0.49390   0.00000  Uiso   1.00
C38    C     0.49530   0.20730   0.47040   0.00000  Uiso   1.00
C39    C     0.53430   0.19430   0.54980   0.00000  Uiso   1.00
C40    C     0.53110   0.15740   0.64120   0.00000  Uiso   1.00
H22    H     0.56820   0.05290   0.04590   0.00000  Uiso   1.00
H23    H     0.54370   0.10430   0.86890   0.00000  Uiso   1.00
H24    H     0.44260   0.01810   0.82080   0.00000  Uiso   1.00
H25    H     0.41510   0.12940   0.59960   0.00000  Uiso   1.00
H26    H     0.41970   0.19480   0.44440   0.00000  Uiso   1.00
H27    H     0.56780   0.21260   0.53960   0.00000  Uiso   1.00
H28    H     0.56260   0.14730   0.69570   0.00000  Uiso   1.00
C41    C     0.28010   0.71180   0.27490   0.00000  Uiso   1.00
C42    C     0.29130   0.74370   0.17280   0.00000  Uiso   1.00
C43    C     0.33200   0.73640   0.09690   0.00000  Uiso   1.00
C44    C     0.26070   0.78200   0.14870   0.00000  Uiso   1.00
N5     N     0.34400   0.76670   0.99840   0.00000  Uiso   1.00
C45    C     0.38330   0.76190   0.90920   0.00000  Uiso   1.00
C46    C     0.39710   0.80130   0.83520   0.00000  Uiso   1.00
C47    C     0.43420   0.79820   0.74390   0.00000  Uiso   1.00
C48    C     0.45730   0.75470   0.72040   0.00000  Uiso   1.00
C49    C     0.44430   0.71570   0.79980   0.00000  Uiso   1.00
C50    C     0.40740   0.71890   0.89120   0.00000  Uiso   1.00
H29    H     0.30290   0.68180   0.29590   0.00000  Uiso   1.00
H30    H     0.35430   0.70630   0.11890   0.00000  Uiso   1.00
H31    H     0.26810   0.80740   0.07080   0.00000  Uiso   1.00
H32    H     0.37940   0.83490   0.84960   0.00000  Uiso   1.00
H33    H     0.44480   0.83030   0.69440   0.00000  Uiso   1.00
H34    H     0.46260   0.68220   0.78960   0.00000  Uiso   1.00
H35    H     0.39730   0.68740   0.94570   0.00000  Uiso   1.00
C51    C     0.78010   0.21180   0.77490   0.00000  Uiso   1.00
C52    C     0.79130   0.24370   0.67280   0.00000  Uiso   1.00
C53    C     0.83200   0.23640   0.59690   0.00000  Uiso   1.00
C54    C     0.76070   0.28200   0.64870   0.00000  Uiso   1.00
N6     N     0.84400   0.26670   0.49840   0.00000  Uiso   1.00
C55    C     0.88330   0.26190   0.40920   0.00000  Uiso   1.00
C56    C     0.89710   0.30130   0.33520   0.00000  Uiso   1.00
C57    C     0.93420   0.29820   0.24390   0.00000  Uiso   1.00
C58    C     0.95730   0.25470   0.22040   0.00000  Uiso   1.00
C59    C     0.94430   0.21570   0.29980   0.00000  Uiso   1.00
C60    C     0.90740   0.21890   0.39120   0.00000  Uiso   1.00
H36    H     0.80290   0.18180   0.79590   0.00000  Uiso   1.00
H37    H     0.85430   0.20630   0.61890   0.00000  Uiso   1.00
H38    H     0.76810   0.30740   0.57080   0.00000  Uiso   1.00
H39    H     0.87940   0.33490   0.34960   0.00000  Uiso   1.00
H40    H     0.94480   0.33030   0.19440   0.00000  Uiso   1.00
H41    H     0.96260   0.18220   0.28960   0.00000  Uiso   1.00
H42    H     0.89730   0.18740   0.44570   0.00000  Uiso   1.00
C61    C     0.21990   0.28820   0.77490   0.00000  Uiso   1.00
C62    C     0.20870   0.25630   0.67280   0.00000  Uiso   1.00
C63    C     0.16800   0.26360   0.59690   0.00000  Uiso   1.00
C64    C     0.23930   0.21800   0.64870   0.00000  Uiso   1.00
N7     N     0.15600   0.23330   0.49840   0.00000  Uiso   1.00
C65    C     0.11670   0.23810   0.40920   0.00000  Uiso   1.00
C66    C     0.10290   0.19870   0.33520   0.00000  Uiso   1.00
C67    C     0.06580   0.20180   0.24390   0.00000  Uiso   1.00
C68    C     0.04270   0.24530   0.22040   0.00000  Uiso   1.00
C69    C     0.05570   0.28430   0.29980   0.00000  Uiso   1.00
C70    C     0.09260   0.28110   0.39120   0.00000  Uiso   1.00
H43    H     0.19710   0.31820   0.79590   0.00000  Uiso   1.00
H44    H     0.14570   0.29370   0.61890   0.00000  Uiso   1.00
H45    H     0.23190   0.19260   0.57080   0.00000  Uiso   1.00
H46    H     0.12060   0.16510   0.34960   0.00000  Uiso   1.00
H47    H     0.05520   0.16970   0.19440   0.00000  Uiso   1.00
H48    H     0.03740   0.31780   0.28960   0.00000  Uiso   1.00
H49    H     0.10270   0.31260   0.44570   0.00000  Uiso   1.00
C71    C     0.71990   0.78820   0.27490   0.00000  Uiso   1.00
C72    C     0.70870   0.75630   0.17280   0.00000  Uiso   1.00
C73    C     0.66800   0.76360   0.09690   0.00000  Uiso   1.00
C74    C     0.73930   0.71800   0.14870   0.00000  Uiso   1.00
N8     N     0.65600   0.73330   0.99840   0.00000  Uiso   1.00
C75    C     0.61670   0.73810   0.90920   0.00000  Uiso   1.00
C76    C     0.60290   0.69870   0.83520   0.00000  Uiso   1.00
C77    C     0.56580   0.70180   0.74390   0.00000  Uiso   1.00
C78    C     0.54270   0.74530   0.72040   0.00000  Uiso   1.00
C79    C     0.55570   0.78430   0.79980   0.00000  Uiso   1.00
C80    C     0.59260   0.78110   0.89120   0.00000  Uiso   1.00
H50    H     0.69710   0.81820   0.29590   0.00000  Uiso   1.00
H51    H     0.64570   0.79370   0.11890   0.00000  Uiso   1.00
H52    H     0.73190   0.69260   0.07080   0.00000  Uiso   1.00
H53    H     0.62060   0.66510   0.84960   0.00000  Uiso   1.00
H54    H     0.55520   0.66970   0.69440   0.00000  Uiso   1.00
H55    H     0.53740   0.81780   0.78960   0.00000  Uiso   1.00
H56    H     0.60270   0.81260   0.94570   0.00000  Uiso   1.00
C81    C     0.53820   0.53010   0.97510   0.00000  Uiso   1.00
C82    C     0.50630   0.54130   0.07720   0.00000  Uiso   1.00
C83    C     0.51360   0.58200   0.15310   0.00000  Uiso   1.00
C84    C     0.46800   0.51070   0.10130   0.00000  Uiso   1.00
N9     N     0.48330   0.59400   0.25160   0.00000  Uiso   1.00
C85    C     0.48810   0.63330   0.34080   0.00000  Uiso   1.00
C86    C     0.44870   0.64710   0.41480   0.00000  Uiso   1.00
C87    C     0.45180   0.68420   0.50610   0.00000  Uiso   1.00
C88    C     0.49530   0.70730   0.52960   0.00000  Uiso   1.00
C89    C     0.53430   0.69430   0.45020   0.00000  Uiso   1.00
C90    C     0.53110   0.65740   0.35880   0.00000  Uiso   1.00
H57    H     0.56820   0.55290   0.95410   0.00000  Uiso   1.00
H58    H     0.54370   0.60430   0.13110   0.00000  Uiso   1.00
H59    H     0.44260   0.51810   0.17920   0.00000  Uiso   1.00
H60    H     0.41510   0.62940   0.40040   0.00000  Uiso   1.00
H61    H     0.41970   0.69480   0.55560   0.00000  Uiso   1.00
H62    H     0.56780   0.71260   0.46040   0.00000  Uiso   1.00
H63    H     0.56260   0.64730   0.30430   0.00000  Uiso   1.00
C91    C     0.03820   0.03010   0.47510   0.00000  Uiso   1.00
C92    C     0.00630   0.04130   0.57720   0.00000  Uiso   1.00
C93    C     0.01360   0.08200   0.65310   0.00000  Uiso   1.00
C94    C     0.96800   0.01070   0.60130   0.00000  Uiso   1.00
N10    N     0.98330   0.09400   0.75160   0.00000  Uiso   1.00
C95    C     0.98810   0.13330   0.84080   0.00000  Uiso   1.00
C96    C     0.94870   0.14710   0.91480   0.00000  Uiso   1.00
C97    C     0.95180   0.18420   0.00610   0.00000  Uiso   1.00
C98    C     0.99530   0.20730   0.02960   0.00000  Uiso   1.00
C99    C     0.03430   0.19430   0.95020   0.00000  Uiso   1.00
C100   C     0.03110   0.15740   0.85880   0.00000  Uiso   1.00
H64    H     0.06820   0.05290   0.45410   0.00000  Uiso   1.00
H65    H     0.04370   0.10430   0.63110   0.00000  Uiso   1.00
H66    H     0.94260   0.01810   0.67920   0.00000  Uiso   1.00
H67    H     0.91510   0.12940   0.90040   0.00000  Uiso   1.00
H68    H     0.91970   0.19480   0.05560   0.00000  Uiso   1.00
H69    H     0.06780   0.21260   0.96040   0.00000  Uiso   1.00
H70    H     0.06260   0.14730   0.80430   0.00000  Uiso   1.00
C101   C     0.96180   0.46990   0.47510   0.00000  Uiso   1.00
C102   C     0.99370   0.45870   0.57720   0.00000  Uiso   1.00
C103   C     0.98640   0.41800   0.65310   0.00000  Uiso   1.00
C104   C     0.03200   0.48930   0.60130   0.00000  Uiso   1.00
N11    N     0.01670   0.40600   0.75160   0.00000  Uiso   1.00
C105   C     0.01190   0.36670   0.84080   0.00000  Uiso   1.00
C106   C     0.05130   0.35290   0.91480   0.00000  Uiso   1.00
C107   C     0.04820   0.31580   0.00610   0.00000  Uiso   1.00
C108   C     0.00470   0.29270   0.02960   0.00000  Uiso   1.00
C109   C     0.96570   0.30570   0.95020   0.00000  Uiso   1.00
C110   C     0.96890   0.34260   0.85880   0.00000  Uiso   1.00
H71    H     0.93180   0.44710   0.45410   0.00000  Uiso   1.00
H72    H     0.95630   0.39570   0.63110   0.00000  Uiso   1.00
H73    H     0.05740   0.48190   0.67920   0.00000  Uiso   1.00
H74    H     0.08490   0.37060   0.90040   0.00000  Uiso   1.00
H75    H     0.08030   0.30520   0.05560   0.00000  Uiso   1.00
H76    H     0.93220   0.28740   0.96040   0.00000  Uiso   1.00
H77    H     0.93740   0.35270   0.80430   0.00000  Uiso   1.00
C111   C     0.46180   0.96990   0.97510   0.00000  Uiso   1.00
C112   C     0.49370   0.95870   0.07720   0.00000  Uiso   1.00
C113   C     0.48640   0.91800   0.15310   0.00000  Uiso   1.00
C114   C     0.53200   0.98930   0.10130   0.00000  Uiso   1.00
N12    N     0.51670   0.90600   0.25160   0.00000  Uiso   1.00
C115   C     0.51190   0.86670   0.34080   0.00000  Uiso   1.00
C116   C     0.55130   0.85290   0.41480   0.00000  Uiso   1.00
C117   C     0.54820   0.81580   0.50610   0.00000  Uiso   1.00
C118   C     0.50470   0.79270   0.52960   0.00000  Uiso   1.00
C119   C     0.46570   0.80570   0.45020   0.00000  Uiso   1.00
C120   C     0.46890   0.84260   0.35880   0.00000  Uiso   1.00
H78    H     0.43180   0.94710   0.95410   0.00000  Uiso   1.00
H79    H     0.45630   0.89570   0.13110   0.00000  Uiso   1.00
H80    H     0.55740   0.98190   0.17920   0.00000  Uiso   1.00
H81    H     0.58490   0.87060   0.40040   0.00000  Uiso   1.00
H82    H     0.58030   0.80520   0.55560   0.00000  Uiso   1.00
H83    H     0.43220   0.78740   0.46040   0.00000  Uiso   1.00
H84    H     0.43740   0.85270   0.30430   0.00000  Uiso   1.00
C121   C     0.71990   0.28820   0.72510   0.00000  Uiso   1.00
C122   C     0.70870   0.25630   0.82720   0.00000  Uiso   1.00
C123   C     0.66800   0.26360   0.90310   0.00000  Uiso   1.00
C124   C     0.73930   0.21800   0.85130   0.00000  Uiso   1.00
N13    N     0.65600   0.23330   0.00160   0.00000  Uiso   1.00
C125   C     0.61670   0.23810   0.09080   0.00000  Uiso   1.00
C126   C     0.60290   0.19870   0.16480   0.00000  Uiso   1.00
C127   C     0.56580   0.20180   0.25610   0.00000  Uiso   1.00
C128   C     0.54270   0.24530   0.27960   0.00000  Uiso   1.00
C129   C     0.55570   0.28430   0.20020   0.00000  Uiso   1.00
C130   C     0.59260   0.28110   0.10880   0.00000  Uiso   1.00
H85    H     0.69710   0.31820   0.70410   0.00000  Uiso   1.00
H86    H     0.64570   0.29370   0.88110   0.00000  Uiso   1.00
H87    H     0.73190   0.19260   0.92920   0.00000  Uiso   1.00
H88    H     0.62060   0.16510   0.15040   0.00000  Uiso   1.00
H89    H     0.55520   0.16970   0.30560   0.00000  Uiso   1.00
H90    H     0.53740   0.31780   0.21040   0.00000  Uiso   1.00
H91    H     0.60270   0.31260   0.05430   0.00000  Uiso   1.00
C131   C     0.21990   0.78820   0.22510   0.00000  Uiso   1.00
C132   C     0.20870   0.75630   0.32720   0.00000  Uiso   1.00
C133   C     0.16800   0.76360   0.40310   0.00000  Uiso   1.00
C134   C     0.23930   0.71800   0.35130   0.00000  Uiso   1.00
N14    N     0.15600   0.73330   0.50160   0.00000  Uiso   1.00
C135   C     0.11670   0.73810   0.59080   0.00000  Uiso   1.00
C136   C     0.10290   0.69870   0.66480   0.00000  Uiso   1.00
C137   C     0.06580   0.70180   0.75610   0.00000  Uiso   1.00
C138   C     0.04270   0.74530   0.77960   0.00000  Uiso   1.00
C139   C     0.05570   0.78430   0.70020   0.00000  Uiso   1.00
C140   C     0.09260   0.78110   0.60880   0.00000  Uiso   1.00
H92    H     0.19710   0.81820   0.20410   0.00000  Uiso   1.00
H93    H     0.14570   0.79370   0.38110   0.00000  Uiso   1.00
H94    H     0.23190   0.69260   0.42920   0.00000  Uiso   1.00
H95    H     0.12060   0.66510   0.65040   0.00000  Uiso   1.00
H96    H     0.05520   0.66970   0.80560   0.00000  Uiso   1.00
H97    H     0.03740   0.81780   0.71040   0.00000  Uiso   1.00
H98    H     0.10270   0.81260   0.55430   0.00000  Uiso   1.00
C141   C     0.78010   0.71180   0.22510   0.00000  Uiso   1.00
C142   C     0.79130   0.74370   0.32720   0.00000  Uiso   1.00
C143   C     0.83200   0.73640   0.40310   0.00000  Uiso   1.00
C144   C     0.76070   0.78200   0.35130   0.00000  Uiso   1.00
N15    N     0.84400   0.76670   0.50160   0.00000  Uiso   1.00
C145   C     0.88330   0.76190   0.59080   0.00000  Uiso   1.00
C146   C     0.89710   0.80130   0.66480   0.00000  Uiso   1.00
C147   C     0.93420   0.79820   0.75610   0.00000  Uiso   1.00
C148   C     0.95730   0.75470   0.77960   0.00000  Uiso   1.00
C149   C     0.94430   0.71570   0.70020   0.00000  Uiso   1.00
C150   C     0.90740   0.71890   0.60880   0.00000  Uiso   1.00
H99    H     0.80290   0.68180   0.20410   0.00000  Uiso   1.00
H100   H     0.85430   0.70630   0.38110   0.00000  Uiso   1.00
H101   H     0.76810   0.80740   0.42920   0.00000  Uiso   1.00
H102   H     0.87940   0.83490   0.65040   0.00000  Uiso   1.00
H103   H     0.94480   0.83030   0.80560   0.00000  Uiso   1.00
H104   H     0.96260   0.68220   0.71040   0.00000  Uiso   1.00
H105   H     0.89730   0.68740   0.55430   0.00000  Uiso   1.00
C151   C     0.28010   0.21180   0.72510   0.00000  Uiso   1.00
C152   C     0.29130   0.24370   0.82720   0.00000  Uiso   1.00
C153   C     0.33200   0.23640   0.90310   0.00000  Uiso   1.00
C154   C     0.26070   0.28200   0.85130   0.00000  Uiso   1.00
N16    N     0.34400   0.26670   0.00160   0.00000  Uiso   1.00
C155   C     0.38330   0.26190   0.09080   0.00000  Uiso   1.00
C156   C     0.39710   0.30130   0.16480   0.00000  Uiso   1.00
C157   C     0.43420   0.29820   0.25610   0.00000  Uiso   1.00
C158   C     0.45730   0.25470   0.27960   0.00000  Uiso   1.00
C159   C     0.44430   0.21570   0.20020   0.00000  Uiso   1.00
C160   C     0.40740   0.21890   0.10880   0.00000  Uiso   1.00
H106   H     0.30290   0.18180   0.70410   0.00000  Uiso   1.00
H107   H     0.35430   0.20630   0.88110   0.00000  Uiso   1.00
H108   H     0.26810   0.30740   0.92920   0.00000  Uiso   1.00
H109   H     0.37940   0.33490   0.15040   0.00000  Uiso   1.00
H110   H     0.44480   0.33030   0.30560   0.00000  Uiso   1.00
H111   H     0.46260   0.18220   0.21040   0.00000  Uiso   1.00
H112   H     0.39730   0.18740   0.05430   0.00000  Uiso   1.00
C161   C     0.00000   0.25000   0.12500   0.00000  Uiso   1.00
C162   C     0.50000   0.75000   0.62500   0.00000  Uiso   1.00
C163   C     0.50000   0.25000   0.37500   0.00000  Uiso   1.00
C164   C     0.00000   0.75000   0.87500   0.00000  Uiso   1.00
loop_
_geom_bond_atom_site_label_1
_geom_bond_atom_site_label_2
_geom_bond_distance
_geom_bond_site_symmetry_2
_ccdc_geom_bond_type
C1     H1      1.076   .     S
C1     C84     1.344   .     S
C2     C4      1.395   .     S
C2     C3      1.344   .     S
C3     H2      1.072   .     S
C3     N1      1.267   .     S
C4     H3      1.016   .     S
C4     C81     1.344   .     S
N1     C5      1.367   .     S
C5     C10     1.396   .     S
C5     C6      1.346   .     S
C6     C7      1.324   .     S
C6     H4      1.076   .     S
C7     C8      1.401   .     S
C7     H5      1.047   .     S
C8     C9      1.354   .     S
C8     C163    1.476   .     S
C9     H6      1.077   .     S
C9     C10     1.321   .     S
C10    H7      1.049   .     S
C11    C12     1.314   .     S
C11    H8      1.076   .     S
C12    C13     1.344   .     S
C13    H9      1.072   .     S
C14    H10     1.016   .     S
N2     C15     1.367   .     S
C15    C16     1.346   .     S
C16    H11     1.076   .     S
C17    C18     1.401   .     S
C17    H12     1.047   .     S
C18    C164    1.476   .     S
C19    H13     1.077   .     S
C19    C20     1.321   .     S
C20    H14     1.049   .     S
C21    C22     1.314   .     S
C21    H15     1.076   .     S
C21    C104    1.344   .     S
C22    C23     1.344   .     S
C23    H16     1.072   .     S
C24    H17     1.016   .     S
C24    C101    1.344   .     S
N3     C25     1.367   .     S
C25    C26     1.346   .     S
C26    H18     1.076   .     S
C27    C28     1.401   .     S
C27    H19     1.047   .     S
C29    H20     1.077   .     S
C29    C30     1.321   .     S
C30    H21     1.049   .     S
C31    H22     1.076   .     S
C32    C34     1.395   .     S
C32    C33     1.344   .     S
C33    H23     1.072   .     S
C33    N4      1.267   .     S
C34    H24     1.016   .     S
N4     C35     1.367   .     S
C35    C40     1.396   .     S
C35    C36     1.346   .     S
C36    C37     1.324   .     S
C36    H25     1.076   .     S
C37    C38     1.401   .     S
C37    H26     1.047   .     S
C38    C39     1.354   .     S
C38    C163    1.476   .     S
C39    H27     1.077   .     S
C39    C40     1.321   .     S
C40    H28     1.049   .     S
C41    C134    1.344   .     S
C41    H29     1.076   .     S
C41    C42     1.314   .     S
C42    C43     1.344   .     S
C42    C44     1.395   .     S
C43    H30     1.072   .     S
C44    H31     1.016   .     S
C44    C131    1.344   .     S
N5     C45     1.367   .     S
C45    C46     1.346   .     S
C45    C50     1.396   .     S
C46    H32     1.076   .     S
C46    C47     1.324   .     S
C47    H33     1.047   .     S
C47    C48     1.401   .     S
C48    C162    1.476   .     S
C48    C49     1.354   .     S
C49    C50     1.321   .     S
C49    H34     1.077   .     S
C50    H35     1.049   .     S
C51    C52     1.314   .     S
C51    H36     1.076   .     S
C51    C124    1.344   .     S
C52    C54     1.395   .     S
C52    C53     1.344   .     S
C53    N6      1.267   .     S
C53    H37     1.072   .     S
C54    C121    1.344   .     S
C54    H38     1.016   .     S
N6     C55     1.367   .     S
C55    C56     1.346   .     S
C55    C60     1.396   .     S
C56    C57     1.324   .     S
C56    H39     1.076   .     S
C57    C58     1.401   .     S
C57    H40     1.047   .     S
C58    C59     1.354   .     S
C59    C60     1.321   .     S
C59    H41     1.077   .     S
C60    H42     1.049   .     S
C61    C62     1.314   .     S
C61    H43     1.076   .     S
C61    C154    1.344   .     S
C62    C64     1.395   .     S
C62    C63     1.344   .     S
C63    N7      1.267   .     S
C63    H44     1.072   .     S
C64    C151    1.344   .     S
C64    H45     1.016   .     S
N7     C65     1.367   .     S
C65    C70     1.396   .     S
C65    C66     1.346   .     S
C66    C67     1.324   .     S
C66    H46     1.076   .     S
C67    C68     1.401   .     S
C67    H47     1.047   .     S
C68    C69     1.354   .     S
C68    C161    1.476   .     S
C69    C70     1.321   .     S
C69    H48     1.077   .     S
C70    H49     1.049   .     S
C71    H50     1.076   .     S
C71    C144    1.344   .     S
C71    C72     1.314   .     S
C72    C73     1.344   .     S
C72    C74     1.395   .     S
C73    H51     1.072   .     S
C74    H52     1.016   .     S
C74    C141    1.344   .     S
N8     C75     1.367   .     S
C75    C76     1.346   .     S
C75    C80     1.396   .     S
C76    H53     1.076   .     S
C76    C77     1.324   .     S
C77    C78     1.401   .     S
C77    H54     1.047   .     S
C78    C162    1.476   .     S
C78    C79     1.354   .     S
C79    C80     1.321   .     S
C79    H55     1.077   .     S
C80    H56     1.049   .     S
C81    H57     1.076   .     S
C82    C84     1.395   .     S
C82    C83     1.344   .     S
C83    H58     1.072   .     S
C83    N9      1.267   .     S
C84    H59     1.016   .     S
N9     C85     1.367   .     S
C85    C90     1.396   .     S
C85    C86     1.346   .     S
C86    C87     1.324   .     S
C86    H60     1.076   .     S
C87    C88     1.401   .     S
C87    H61     1.047   .     S
C88    C89     1.354   .     S
C88    C162    1.476   .     S
C89    H62     1.077   .     S
C89    C90     1.321   .     S
C90    H63     1.049   .     S
C91    C92     1.314   .     S
C91    H64     1.076   .     S
C92    C93     1.344   .     S
C93    H65     1.072   .     S
C94    H66     1.016   .     S
N10    C95     1.367   .     S
C95    C96     1.346   .     S
C96    H67     1.076   .     S
C97    C98     1.401   .     S
C97    H68     1.047   .     S
C99    H69     1.077   .     S
C99    C100    1.321   .     S
C100   H70     1.049   .     S
C101   C102    1.314   .     S
C101   H71     1.076   .     S
C102   C103    1.344   .     S
C103   H72     1.072   .     S
C104   H73     1.016   .     S
N11    C105    1.367   .     S
C105   C106    1.346   .     S
C106   H74     1.076   .     S
C107   C108    1.401   .     S
C107   H75     1.047   .     S
C108   C161    1.476   .     S
C109   H76     1.077   .     S
C109   C110    1.321   .     S
C110   H77     1.049   .     S
C111   H78     1.076   .     S
C112   C114    1.395   .     S
C112   C113    1.344   .     S
C113   H79     1.072   .     S
C113   N12     1.267   .     S
C114   H80     1.016   .     S
N12    C115    1.367   .     S
C115   C120    1.396   .     S
C115   C116    1.346   .     S
C116   H81     1.076   .     S
C116   C117    1.324   .     S
C117   C118    1.401   .     S
C117   H82     1.047   .     S
C118   C119    1.354   .     S
C118   C162    1.476   .     S
C119   H83     1.077   .     S
C119   C120    1.321   .     S
C120   H84     1.049   .     S
C121   H85     1.076   .     S
C121   C122    1.314   .     S
C122   C123    1.344   .     S
C122   C124    1.395   .     S
C123   H86     1.072   .     S
C124   H87     1.016   .     S
N13    C125    1.367   .     S
C125   C126    1.346   .     S
C125   C130    1.396   .     S
C126   H88     1.076   .     S
C126   C127    1.324   .     S
C127   C128    1.401   .     S
C127   H89     1.047   .     S
C128   C163    1.476   .     S
C128   C129    1.354   .     S
C129   H90     1.077   .     S
C129   C130    1.321   .     S
C130   H91     1.049   .     S
C131   C132    1.314   .     S
C131   H92     1.076   .     S
C132   C134    1.395   .     S
C132   C133    1.344   .     S
C133   N14     1.267   .     S
C133   H93     1.072   .     S
C134   H94     1.016   .     S
N14    C135    1.367   .     S
C135   C140    1.396   .     S
C135   C136    1.346   .     S
C136   C137    1.324   .     S
C136   H95     1.076   .     S
C137   C138    1.401   .     S
C137   H96     1.047   .     S
C138   C139    1.354   .     S
C138   C164    1.476   .     S
C139   H97     1.077   .     S
C139   C140    1.321   .     S
C140   H98     1.049   .     S
C141   C142    1.314   .     S
C141   H99     1.076   .     S
C142   C144    1.395   .     S
C142   C143    1.344   .     S
C143   N15     1.267   .     S
C143   H100    1.072   .     S
C144   H101    1.016   .     S
N15    C145    1.367   .     S
C145   C146    1.346   .     S
C145   C150    1.396   .     S
C146   C147    1.324   .     S
C146   H102    1.076   .     S
C147   C148    1.401   .     S
C147   H103    1.047   .     S
C148   C149    1.354   .     S
C149   C150    1.321   .     S
C149   H104    1.077   .     S
C150   H105    1.049   .     S
C151   H106    1.076   .     S
C151   C152    1.314   .     S
C152   C153    1.344   .     S
C152   C154    1.395   .     S
C153   H107    1.072   .     S
C154   H108    1.016   .     S
N16    C155    1.367   .     S
C155   C156    1.346   .     S
C155   C160    1.396   .     S
C156   H109    1.076   .     S
C156   C157    1.324   .     S
C157   C158    1.401   .     S
C157   H110    1.047   .     S
C158   C159    1.354   .     S
C158   C163    1.476   .     S
C159   H111    1.077   .     S
C159   C160    1.321   .     S
C160   H112    1.049   .     S
