data_COF-JLU3
_audit_creation_date              2016-12-13
_audit_creation_method            'Materials Studio'
_symmetry_space_group_name_H-M    'P1'
_symmetry_Int_Tables_number       1
_symmetry_cell_setting            triclinic
loop_
_symmetry_equiv_pos_as_xyz
  x,y,z
_cell_length_a                    28.8679
_cell_length_b                    6.8000
_cell_length_c                    25.7480
_cell_angle_alpha                 90.0000
_cell_angle_beta                  63.5295
_cell_angle_gamma                 90.0000
loop_
_atom_site_label
_atom_site_type_symbol
_atom_site_fract_x
_atom_site_fract_y
_atom_site_fract_z
_atom_site_U_iso_or_equiv
_atom_site_adp_type
_atom_site_occupancy
N1     N     0.52082   0.73529   0.50469   0.00000  Uiso   1.00
N2     N     0.47918   0.73529   0.49531   0.00000  Uiso   1.00
C3     C     0.57075   0.73529   0.46267   0.00000  Uiso   1.00
C4     C     0.42925   0.73529   0.53733   0.00000  Uiso   1.00
H5     H     0.58053   0.73529   0.41921   0.00000  Uiso   1.00
H6     H     0.41947   0.73529   0.58079   0.00000  Uiso   1.00
N7     N     0.49556   0.64443   0.97684   0.00000  Uiso   1.00
N8     N     0.50444   0.64443   0.02316   0.00000  Uiso   1.00
C9     C     0.53268   0.64443   0.92074   0.00000  Uiso   1.00
C10    C     0.46732   0.64443   0.07926   0.00000  Uiso   1.00
H11    H     0.57152   0.64443   0.90938   0.00000  Uiso   1.00
H12    H     0.42848   0.64443   0.09062   0.00000  Uiso   1.00
N13    N     0.98010   0.71089   0.52624   0.00000  Uiso   1.00
N14    N     0.01990   0.71089   0.47376   0.00000  Uiso   1.00
C15    C     0.92927   0.71089   0.53753   0.00000  Uiso   1.00
C16    C     0.07073   0.71089   0.46247   0.00000  Uiso   1.00
H17    H     0.91725   0.71089   0.50560   0.00000  Uiso   1.00
H18    H     0.08275   0.71089   0.49440   0.00000  Uiso   1.00
C19    C     0.47663   0.66824   0.80289   0.00000  Uiso   1.00
C20    C     0.52751   0.67833   0.74644   0.00000  Uiso   1.00
C21    C     0.52337   0.66824   0.19711   0.00000  Uiso   1.00
C22    C     0.47249   0.67833   0.25356   0.00000  Uiso   1.00
H23    H     0.52638   0.68674   0.70281   0.00000  Uiso   1.00
H24    H     0.47362   0.68674   0.29719   0.00000  Uiso   1.00
C25    C     0.83028   0.68875   0.70745   0.00000  Uiso   1.00
C26    C     0.77812   0.68691   0.70464   0.00000  Uiso   1.00
C27    C     0.16972   0.68875   0.29255   0.00000  Uiso   1.00
C28    C     0.22188   0.68691   0.29536   0.00000  Uiso   1.00
H29    H     0.74037   0.68027   0.74636   0.00000  Uiso   1.00
H30    H     0.25963   0.68027   0.25364   0.00000  Uiso   1.00
C31    C     0.72411   0.73380   0.41220   0.00000  Uiso   1.00
C32    C     0.72507   0.72636   0.47143   0.00000  Uiso   1.00
C33    C     0.27589   0.73380   0.58780   0.00000  Uiso   1.00
C34    C     0.27493   0.72636   0.52857   0.00000  Uiso   1.00
H35    H     0.76363   0.72274   0.47365   0.00000  Uiso   1.00
H36    H     0.23637   0.72274   0.52635   0.00000  Uiso   1.00
C37    C     0.62101   0.73352   0.46512   0.00000  Uiso   1.00
C38    C     0.62194   0.73251   0.52452   0.00000  Uiso   1.00
C39    C     0.37899   0.73352   0.53488   0.00000  Uiso   1.00
C40    C     0.37806   0.73251   0.47548   0.00000  Uiso   1.00
H41    H     0.58405   0.73474   0.56614   0.00000  Uiso   1.00
H42    H     0.41595   0.73474   0.43386   0.00000  Uiso   1.00
C43    C     0.88028   0.70468   0.59190   0.00000  Uiso   1.00
C44    C     0.82809   0.70220   0.58910   0.00000  Uiso   1.00
C45    C     0.11972   0.70468   0.40810   0.00000  Uiso   1.00
C46    C     0.17191   0.70220   0.41090   0.00000  Uiso   1.00
H47    H     0.82725   0.70674   0.54528   0.00000  Uiso   1.00
H48    H     0.17275   0.70674   0.45472   0.00000  Uiso   1.00
C49    C     0.53071   0.65529   0.86427   0.00000  Uiso   1.00
C50    C     0.58146   0.66554   0.80768   0.00000  Uiso   1.00
C51    C     0.46929   0.65529   0.13573   0.00000  Uiso   1.00
C52    C     0.41854   0.66554   0.19232   0.00000  Uiso   1.00
H53    H     0.62020   0.66467   0.80939   0.00000  Uiso   1.00
H54    H     0.37980   0.66467   0.19061   0.00000  Uiso   1.00
C55    C     0.67535   0.70691   0.58665   0.00000  Uiso   1.00
C56    C     0.67223   0.73165   0.40892   0.00000  Uiso   1.00
C57    C     0.67401   0.72315   0.52764   0.00000  Uiso   1.00
C58    C     0.63068   0.68733   0.69221   0.00000  Uiso   1.00
C59    C     0.47821   0.65641   0.86202   0.00000  Uiso   1.00
C60    C     0.57987   0.67706   0.74878   0.00000  Uiso   1.00
C61    C     0.72495   0.69542   0.64235   0.00000  Uiso   1.00
C62    C     0.88129   0.70024   0.65123   0.00000  Uiso   1.00
C63    C     0.77703   0.69443   0.64541   0.00000  Uiso   1.00
C64    C     0.72280   0.70567   0.58917   0.00000  Uiso   1.00
C65    C     0.62956   0.69767   0.63848   0.00000  Uiso   1.00
C66    C     0.67862   0.68631   0.69356   0.00000  Uiso   1.00
C67    C     0.32465   0.70691   0.41335   0.00000  Uiso   1.00
C68    C     0.32777   0.73165   0.59108   0.00000  Uiso   1.00
C69    C     0.32599   0.72315   0.47236   0.00000  Uiso   1.00
C70    C     0.36932   0.68733   0.30779   0.00000  Uiso   1.00
C71    C     0.52179   0.65641   0.13798   0.00000  Uiso   1.00
C72    C     0.42013   0.67706   0.25122   0.00000  Uiso   1.00
C73    C     0.27505   0.69542   0.35765   0.00000  Uiso   1.00
C74    C     0.11871   0.70024   0.34877   0.00000  Uiso   1.00
C75    C     0.22297   0.69443   0.35459   0.00000  Uiso   1.00
C76    C     0.27720   0.70567   0.41083   0.00000  Uiso   1.00
C77    C     0.37044   0.69767   0.36152   0.00000  Uiso   1.00
C78    C     0.32138   0.68631   0.30644   0.00000  Uiso   1.00
H79    H     0.59052   0.69850   0.63738   0.00000  Uiso   1.00
H80    H     0.68037   0.67796   0.73687   0.00000  Uiso   1.00
H81    H     0.76053   0.71309   0.54746   0.00000  Uiso   1.00
H82    H     0.40948   0.69850   0.36262   0.00000  Uiso   1.00
H83    H     0.31963   0.67796   0.26313   0.00000  Uiso   1.00
H84    H     0.23947   0.71309   0.45254   0.00000  Uiso   1.00
O85    O     0.67194   0.73219   0.35048   0.00000  Uiso   1.00
O86    O     0.42867   0.64755   0.91780   0.00000  Uiso   1.00
O87    O     0.93221   0.70552   0.65448   0.00000  Uiso   1.00
O88    O     0.32806   0.73219   0.64952   0.00000  Uiso   1.00
O89    O     0.57133   0.64755   0.08220   0.00000  Uiso   1.00
O90    O     0.06779   0.70552   0.34552   0.00000  Uiso   1.00
H91    H     0.71211   0.75512   0.31622   0.00000  Uiso   1.00
H92    H     0.42924   0.76337   0.94788   0.00000  Uiso   1.00
H93    H     0.93487   0.84405   0.67579   0.00000  Uiso   1.00
H94    H     0.28789   0.75512   0.68378   0.00000  Uiso   1.00
H95    H     0.57076   0.76337   0.05212   0.00000  Uiso   1.00
H96    H     0.06513   0.84405   0.32421   0.00000  Uiso   1.00
C97    C     0.83148   0.67894   0.76654   0.00000  Uiso   1.00
C98    C     0.77563   0.67092   0.81516   0.00000  Uiso   1.00
C99    C     0.85910   0.86233   0.77420   0.00000  Uiso   1.00
C100   C     0.86101   0.49308   0.76873   0.00000  Uiso   1.00
C101   C     0.16852   0.67894   0.23346   0.00000  Uiso   1.00
C102   C     0.22437   0.67092   0.18484   0.00000  Uiso   1.00
C103   C     0.14090   0.86233   0.22580   0.00000  Uiso   1.00
C104   C     0.13899   0.49308   0.23127   0.00000  Uiso   1.00
H105   H     0.77625   0.66305   0.85906   0.00000  Uiso   1.00
H106   H     0.75539   0.53525   0.80903   0.00000  Uiso   1.00
H107   H     0.75392   0.80853   0.81317   0.00000  Uiso   1.00
H108   H     0.90035   0.86757   0.73796   0.00000  Uiso   1.00
H109   H     0.86004   0.85500   0.81796   0.00000  Uiso   1.00
H110   H     0.83735   0.99993   0.77231   0.00000  Uiso   1.00
H111   H     0.84064   0.35738   0.76286   0.00000  Uiso   1.00
H112   H     0.86205   0.48508   0.81242   0.00000  Uiso   1.00
H113   H     0.90222   0.49948   0.73241   0.00000  Uiso   1.00
H114   H     0.22375   0.66305   0.14094   0.00000  Uiso   1.00
H115   H     0.24461   0.53525   0.19097   0.00000  Uiso   1.00
H116   H     0.24608   0.80853   0.18683   0.00000  Uiso   1.00
H117   H     0.09965   0.86757   0.26204   0.00000  Uiso   1.00
H118   H     0.13996   0.85500   0.18204   0.00000  Uiso   1.00
H119   H     0.16265   0.99993   0.22769   0.00000  Uiso   1.00
H120   H     0.15936   0.35738   0.23714   0.00000  Uiso   1.00
H121   H     0.13795   0.48508   0.18758   0.00000  Uiso   1.00
H122   H     0.09778   0.49948   0.26759   0.00000  Uiso   1.00
C123   C     0.42474   0.66998   0.79917   0.00000  Uiso   1.00
C124   C     0.37782   0.65945   0.85935   0.00000  Uiso   1.00
C125   C     0.42346   0.49244   0.76271   0.00000  Uiso   1.00
C126   C     0.42157   0.86041   0.76857   0.00000  Uiso   1.00
C127   C     0.57526   0.66998   0.20083   0.00000  Uiso   1.00
C128   C     0.62218   0.65945   0.14065   0.00000  Uiso   1.00
C129   C     0.57654   0.49244   0.23729   0.00000  Uiso   1.00
C130   C     0.57843   0.86041   0.23143   0.00000  Uiso   1.00
H131   H     0.34061   0.66116   0.85418   0.00000  Uiso   1.00
H132   H     0.37838   0.79127   0.88639   0.00000  Uiso   1.00
H133   H     0.37983   0.51798   0.88198   0.00000  Uiso   1.00
H134   H     0.45772   0.50138   0.71778   0.00000  Uiso   1.00
H135   H     0.38583   0.49404   0.75840   0.00000  Uiso   1.00
H136   H     0.42601   0.35064   0.78492   0.00000  Uiso   1.00
H137   H     0.42268   0.99278   0.79516   0.00000  Uiso   1.00
H138   H     0.38392   0.86196   0.76428   0.00000  Uiso   1.00
H139   H     0.45583   0.86731   0.72360   0.00000  Uiso   1.00
H140   H     0.65939   0.66116   0.14582   0.00000  Uiso   1.00
H141   H     0.62162   0.79127   0.11361   0.00000  Uiso   1.00
H142   H     0.62017   0.51798   0.11802   0.00000  Uiso   1.00
H143   H     0.54228   0.50138   0.28222   0.00000  Uiso   1.00
H144   H     0.61417   0.49404   0.24160   0.00000  Uiso   1.00
H145   H     0.57399   0.35064   0.21508   0.00000  Uiso   1.00
H146   H     0.57732   0.99278   0.20484   0.00000  Uiso   1.00
H147   H     0.61608   0.86196   0.23572   0.00000  Uiso   1.00
H148   H     0.54417   0.86731   0.27640   0.00000  Uiso   1.00
C149   C     0.77512   0.74374   0.35603   0.00000  Uiso   1.00
C150   C     0.82093   0.74011   0.37130   0.00000  Uiso   1.00
C151   C     0.77650   0.93623   0.32388   0.00000  Uiso   1.00
C152   C     0.77880   0.56649   0.31718   0.00000  Uiso   1.00
C153   C     0.22488   0.74374   0.64397   0.00000  Uiso   1.00
C154   C     0.17907   0.74011   0.62870   0.00000  Uiso   1.00
C155   C     0.22350   0.93623   0.67612   0.00000  Uiso   1.00
C156   C     0.22120   0.56649   0.68282   0.00000  Uiso   1.00
H157   H     0.85877   0.74848   0.32976   0.00000  Uiso   1.00
H158   H     0.81979   0.59799   0.39533   0.00000  Uiso   1.00
H159   H     0.81797   0.87122   0.40020   0.00000  Uiso   1.00
H160   H     0.74250   0.93913   0.31264   0.00000  Uiso   1.00
H161   H     0.81435   0.94518   0.28237   0.00000  Uiso   1.00
H162   H     0.77358   1.06674   0.35297   0.00000  Uiso   1.00
H163   H     0.77757   0.42455   0.34132   0.00000  Uiso   1.00
H164   H     0.81666   0.57417   0.27566   0.00000  Uiso   1.00
H165   H     0.74483   0.56967   0.30589   0.00000  Uiso   1.00
H166   H     0.14123   0.74848   0.67024   0.00000  Uiso   1.00
H167   H     0.18021   0.59799   0.60467   0.00000  Uiso   1.00
H168   H     0.18203   0.87122   0.59980   0.00000  Uiso   1.00
H169   H     0.25750   0.93913   0.68736   0.00000  Uiso   1.00
H170   H     0.18565   0.94518   0.71763   0.00000  Uiso   1.00
H171   H     0.22642   1.06674   0.64703   0.00000  Uiso   1.00
H172   H     0.22243   0.42455   0.65868   0.00000  Uiso   1.00
H173   H     0.18334   0.57417   0.72434   0.00000  Uiso   1.00
H174   H     0.25517   0.56967   0.69411   0.00000  Uiso   1.00
loop_
_geom_bond_atom_site_label_1
_geom_bond_atom_site_label_2
_geom_bond_distance
_geom_bond_site_symmetry_2
_ccdc_geom_bond_type
N1     N2      1.328   .     S
N1     C3      1.363   .     S
N2     C4      1.363   .     S
C3     C37     1.480   .     S
C3     H5      1.025   .     S
C4     C39     1.480   .     S
C4     H6      1.025   .     S
N7     C9      1.362   .     S
N8     C10     1.362   .     S
C9     C49     1.482   .     S
C9     H11     1.025   .     S
C10    C51     1.482   .     S
C10    H12     1.025   .     S
N13    C15     1.363   .     S
N14    C16     1.363   .     S
C15    H17     1.025   .     S
C15    C43     1.482   .     S
C16    H18     1.025   .     S
C16    C45     1.482   .     S
C19    C123    1.543   .     S
C19    C20     1.540   .     S
C19    C59     1.545   .     S
C20    H23     1.140   .     S
C20    C60     1.540   .     S
C21    C127    1.543   .     S
C21    C71     1.545   .     S
C21    C22     1.540   .     S
C22    H24     1.140   .     S
C22    C72     1.540   .     S
C25    C97     1.539   .     S
C25    C26     1.539   .     S
C25    C62     1.539   .     S
C26    H29     1.140   .     S
C26    C63     1.540   .     S
C27    C101    1.539   .     S
C27    C28     1.539   .     S
C27    C74     1.539   .     S
C28    H30     1.140   .     S
C28    C75     1.540   .     S
C31    C56     1.537   .     S
C31    C149    1.538   .     S
C31    C32     1.538   .     S
C32    C57     1.538   .     S
C32    H35     1.140   .     S
C33    C68     1.537   .     S
C33    C34     1.538   .     S
C33    C153    1.538   .     S
C34    H36     1.140   .     S
C34    C69     1.538   .     S
C37    C38     1.542   .     S
C37    C56     1.540   .     S
C38    C57     1.542   .     S
C38    H41     1.140   .     S
C39    C40     1.542   .     S
C39    C68     1.540   .     S
C40    C69     1.542   .     S
C40    H42     1.140   .     S
C43    C44     1.540   .     S
C43    C62     1.541   .     S
C44    H47     1.140   .     S
C44    C63     1.540   .     S
C45    C46     1.540   .     S
C45    C74     1.541   .     S
C46    H48     1.140   .     S
C46    C75     1.540   .     S
C49    C59     1.542   .     S
C49    C50     1.540   .     S
C50    H53     1.139   .     S
C50    C60     1.540   .     S
C51    C71     1.542   .     S
C51    C52     1.540   .     S
C52    H54     1.139   .     S
C52    C72     1.540   .     S
C55    C64     1.400   .     S
C55    C57     1.541   .     S
C55    C65     1.400   .     S
C56    O85     1.509   .     S
C58    C60     1.540   .     S
C58    C66     1.400   .     S
C58    C65     1.400   .     S
C59    O86     1.510   .     S
C61    C63     1.540   .     S
C61    C64     1.400   .     S
C61    C66     1.400   .     S
C62    O87     1.509   .     S
C64    H81     1.140   .     S
C65    H79     1.140   .     S
C66    H80     1.140   .     S
C67    C76     1.400   .     S
C67    C77     1.400   .     S
C67    C69     1.541   .     S
C68    O88     1.509   .     S
C70    C77     1.400   .     S
C70    C72     1.540   .     S
C70    C78     1.400   .     S
C71    O89     1.510   .     S
C73    C75     1.540   .     S
C73    C78     1.400   .     S
C73    C76     1.400   .     S
C74    O90     1.509   .     S
C76    H84     1.140   .     S
C77    H82     1.140   .     S
C78    H83     1.140   .     S
O85    H91     1.111   .     S
O86    H92     1.110   .     S
O87    H93     1.110   .     S
O88    H94     1.111   .     S
O89    H95     1.110   .     S
O90    H96     1.110   .     S
C97    C99     1.540   .     S
C97    C98     1.540   .     S
C97    C100    1.540   .     S
C98    H106    1.140   .     S
C98    H107    1.140   .     S
C98    H105    1.140   .     S
C99    H109    1.140   .     S
C99    H110    1.140   .     S
C99    H108    1.140   .     S
C100   H112    1.140   .     S
C100   H113    1.140   .     S
C100   H111    1.140   .     S
C101   C104    1.540   .     S
C101   C103    1.540   .     S
C101   C102    1.540   .     S
C102   H115    1.140   .     S
C102   H116    1.140   .     S
C102   H114    1.140   .     S
C103   H118    1.140   .     S
C103   H119    1.140   .     S
C103   H117    1.140   .     S
C104   H122    1.140   .     S
C104   H120    1.140   .     S
C104   H121    1.140   .     S
C123   C126    1.540   .     S
C123   C125    1.540   .     S
C123   C124    1.539   .     S
C124   H131    1.140   .     S
C124   H132    1.140   .     S
C124   H133    1.140   .     S
C125   H135    1.140   .     S
C125   H134    1.140   .     S
C125   H136    1.140   .     S
C126   H137    1.140   .     S
C126   H138    1.140   .     S
C126   H139    1.140   .     S
C127   C128    1.539   .     S
C127   C130    1.540   .     S
C127   C129    1.540   .     S
C128   H140    1.140   .     S
C128   H141    1.140   .     S
C128   H142    1.140   .     S
C129   H143    1.140   .     S
C129   H144    1.140   .     S
C129   H145    1.140   .     S
C130   H148    1.140   .     S
C130   H147    1.140   .     S
C130   H146    1.140   .     S
C149   C152    1.540   .     S
C149   C150    1.539   .     S
C149   C151    1.540   .     S
C150   H157    1.140   .     S
C150   H159    1.140   .     S
C150   H158    1.140   .     S
C151   H160    1.140   .     S
C151   H162    1.140   .     S
C151   H161    1.140   .     S
C152   H163    1.140   .     S
C152   H165    1.140   .     S
C152   H164    1.140   .     S
C153   C154    1.539   .     S
C153   C156    1.540   .     S
C153   C155    1.540   .     S
C154   H166    1.140   .     S
C154   H168    1.140   .     S
C154   H167    1.140   .     S
C155   H169    1.140   .     S
C155   H171    1.140   .     S
C155   H170    1.140   .     S
C156   H172    1.140   .     S
C156   H174    1.140   .     S
C156   H173    1.140   .     S
