data_COF-TpAzo
_audit_creation_date              2016-12-13
_audit_creation_method            'Materials Studio'
_symmetry_space_group_name_H-M    'P1'
_symmetry_Int_Tables_number       1
_symmetry_cell_setting            triclinic
loop_
_symmetry_equiv_pos_as_xyz
  x,y,z
_cell_length_a                    31.8578
_cell_length_b                    31.8578
_cell_length_c                    3.6000
_cell_angle_alpha                 90.0000
_cell_angle_beta                  90.0000
_cell_angle_gamma                 60.0000
loop_
_atom_site_label
_atom_site_type_symbol
_atom_site_fract_x
_atom_site_fract_y
_atom_site_fract_z
_atom_site_U_iso_or_equiv
_atom_site_adp_type
_atom_site_occupancy
N1     N     0.61594   0.58442   1.38889   0.00000  Uiso   1.00
C1     C     0.60501   0.63032   1.38889   0.00000  Uiso   1.00
C2     C     0.58413   0.56936   1.38889   0.00000  Uiso   1.00
C3     C     0.53788   0.59853   1.38889   0.00000  Uiso   1.00
C4     C     0.50861   0.58194   1.38889   0.00000  Uiso   1.00
C5     C     0.52468   0.53632   1.38889   0.00000  Uiso   1.00
C6     C     0.57058   0.50708   1.38889   0.00000  Uiso   1.00
C7     C     0.59993   0.52350   1.38889   0.00000  Uiso   1.00
H1     H     0.57032   0.65511   1.38889   0.00000  Uiso   1.00
H2     H     0.52354   0.63398   1.38889   0.00000  Uiso   1.00
H3     H     0.64881   0.55916   1.38889   0.00000  Uiso   1.00
H4     H     0.63524   0.50035   1.38889   0.00000  Uiso   1.00
H5     H     0.47320   0.60458   1.38889   0.00000  Uiso   1.00
H6     H     0.58344   0.47167   1.38889   0.00000  Uiso   1.00
N2     N     0.38406   0.41558   1.38889   0.00000  Uiso   1.00
C8     C     0.39499   0.36968   1.38889   0.00000  Uiso   1.00
C9     C     0.41587   0.43064   1.38889   0.00000  Uiso   1.00
C10    C     0.46212   0.40147   1.38889   0.00000  Uiso   1.00
C11    C     0.49139   0.41806   1.38889   0.00000  Uiso   1.00
C12    C     0.47532   0.46368   1.38889   0.00000  Uiso   1.00
C13    C     0.42942   0.49292   1.38889   0.00000  Uiso   1.00
C14    C     0.40007   0.47650   1.38889   0.00000  Uiso   1.00
H7     H     0.42968   0.34489   1.38889   0.00000  Uiso   1.00
H8     H     0.47646   0.36602   1.38889   0.00000  Uiso   1.00
H9     H     0.35119   0.44084   1.38889   0.00000  Uiso   1.00
H10    H     0.36476   0.49965   1.38889   0.00000  Uiso   1.00
H11    H     0.52680   0.39542   1.38889   0.00000  Uiso   1.00
H12    H     0.41656   0.52833   1.38889   0.00000  Uiso   1.00
N3     N     0.49376   0.52058   1.38889   0.00000  Uiso   1.00
N4     N     0.50624   0.47942   1.38889   0.00000  Uiso   1.00
N5     N     0.79964   0.61594   1.38889   0.00000  Uiso   1.00
C15    C     0.76467   0.60501   1.38889   0.00000  Uiso   1.00
C16    C     0.84651   0.58413   1.38889   0.00000  Uiso   1.00
C17    C     0.86359   0.53788   1.38889   0.00000  Uiso   1.00
C18    C     0.90944   0.50861   1.38889   0.00000  Uiso   1.00
C19    C     0.93900   0.52468   1.38889   0.00000  Uiso   1.00
C20    C     0.92234   0.57058   1.38889   0.00000  Uiso   1.00
C21    C     0.87656   0.59993   1.38889   0.00000  Uiso   1.00
H13    H     0.77458   0.57032   1.38889   0.00000  Uiso   1.00
H14    H     0.84248   0.52354   1.38889   0.00000  Uiso   1.00
H15    H     0.79203   0.64881   1.38889   0.00000  Uiso   1.00
H16    H     0.86441   0.63524   1.38889   0.00000  Uiso   1.00
H17    H     0.92223   0.47320   1.38889   0.00000  Uiso   1.00
H18    H     0.94489   0.58344   1.38889   0.00000  Uiso   1.00
N6     N     0.20036   0.38406   1.38889   0.00000  Uiso   1.00
C22    C     0.23533   0.39499   1.38889   0.00000  Uiso   1.00
C23    C     0.15349   0.41587   1.38889   0.00000  Uiso   1.00
C24    C     0.13641   0.46212   1.38889   0.00000  Uiso   1.00
C25    C     0.09056   0.49139   1.38889   0.00000  Uiso   1.00
C26    C     0.06100   0.47532   1.38889   0.00000  Uiso   1.00
C27    C     0.07766   0.42942   1.38889   0.00000  Uiso   1.00
C28    C     0.12344   0.40007   1.38889   0.00000  Uiso   1.00
H19    H     0.22542   0.42968   1.38889   0.00000  Uiso   1.00
H20    H     0.15752   0.47646   1.38889   0.00000  Uiso   1.00
H21    H     0.20797   0.35119   1.38889   0.00000  Uiso   1.00
H22    H     0.13559   0.36476   1.38889   0.00000  Uiso   1.00
H23    H     0.07777   0.52680   1.38889   0.00000  Uiso   1.00
H24    H     0.05511   0.41656   1.38889   0.00000  Uiso   1.00
N7     N     0.98565   0.49376   1.38889   0.00000  Uiso   1.00
N8     N     0.01435   0.50624   1.38889   0.00000  Uiso   1.00
N9     N     0.58442   0.79964   1.38889   0.00000  Uiso   1.00
C29    C     0.63032   0.76467   1.38889   0.00000  Uiso   1.00
C30    C     0.56936   0.84651   1.38889   0.00000  Uiso   1.00
C31    C     0.59853   0.86359   1.38889   0.00000  Uiso   1.00
C32    C     0.58194   0.90944   1.38889   0.00000  Uiso   1.00
C33    C     0.53632   0.93901   1.38889   0.00000  Uiso   1.00
C34    C     0.50708   0.92234   1.38889   0.00000  Uiso   1.00
C35    C     0.52350   0.87656   1.38889   0.00000  Uiso   1.00
H25    H     0.65511   0.77458   1.38889   0.00000  Uiso   1.00
H26    H     0.63398   0.84248   1.38889   0.00000  Uiso   1.00
H27    H     0.55916   0.79203   1.38889   0.00000  Uiso   1.00
H28    H     0.50035   0.86441   1.38889   0.00000  Uiso   1.00
H29    H     0.60458   0.92223   1.38889   0.00000  Uiso   1.00
H30    H     0.47167   0.94489   1.38889   0.00000  Uiso   1.00
N10    N     0.41558   0.20036   1.38889   0.00000  Uiso   1.00
C36    C     0.36968   0.23533   1.38889   0.00000  Uiso   1.00
C37    C     0.43064   0.15349   1.38889   0.00000  Uiso   1.00
C38    C     0.40147   0.13641   1.38889   0.00000  Uiso   1.00
C39    C     0.41806   0.09056   1.38889   0.00000  Uiso   1.00
C40    C     0.46368   0.06100   1.38889   0.00000  Uiso   1.00
C41    C     0.49292   0.07766   1.38889   0.00000  Uiso   1.00
C42    C     0.47650   0.12344   1.38889   0.00000  Uiso   1.00
H31    H     0.34489   0.22542   1.38889   0.00000  Uiso   1.00
H32    H     0.36602   0.15752   1.38889   0.00000  Uiso   1.00
H33    H     0.44084   0.20797   1.38889   0.00000  Uiso   1.00
H34    H     0.49965   0.13559   1.38889   0.00000  Uiso   1.00
H35    H     0.39542   0.07777   1.38889   0.00000  Uiso   1.00
H36    H     0.52833   0.05511   1.38889   0.00000  Uiso   1.00
N11    N     0.52058   0.98565   1.38889   0.00000  Uiso   1.00
N12    N     0.47942   0.01435   1.38889   0.00000  Uiso   1.00
C43    C     0.68674   0.61626   1.38889   0.00000  Uiso   1.00
C44    C     0.63561   0.64614   1.38889   0.00000  Uiso   1.00
O1     O     0.70404   0.57461   1.38889   0.00000  Uiso   1.00
C45    C     0.61626   0.69699   1.38889   0.00000  Uiso   1.00
C46    C     0.64614   0.71825   1.38889   0.00000  Uiso   1.00
O2     O     0.57461   0.72135   1.38889   0.00000  Uiso   1.00
C47    C     0.69699   0.68674   1.38889   0.00000  Uiso   1.00
C48    C     0.71825   0.63561   1.38889   0.00000  Uiso   1.00
O3     O     0.72135   0.70404   1.38889   0.00000  Uiso   1.00
C49    C     0.31326   0.38374   1.38889   0.00000  Uiso   1.00
C50    C     0.36439   0.35386   1.38889   0.00000  Uiso   1.00
O4     O     0.29596   0.42539   1.38889   0.00000  Uiso   1.00
C51    C     0.38374   0.30301   1.38889   0.00000  Uiso   1.00
C52    C     0.35386   0.28175   1.38889   0.00000  Uiso   1.00
O5     O     0.42539   0.27865   1.38889   0.00000  Uiso   1.00
C53    C     0.30301   0.31326   1.38889   0.00000  Uiso   1.00
C54    C     0.28175   0.36439   1.38889   0.00000  Uiso   1.00
O6     O     0.27865   0.29596   1.38889   0.00000  Uiso   1.00
loop_
_geom_bond_atom_site_label_1
_geom_bond_atom_site_label_2
_geom_bond_distance
_geom_bond_site_symmetry_2
_ccdc_geom_bond_type
N1     C1      1.323   .     S
N1     H3      0.950   .     S
N1     C2      1.320   .     S
C1     H1      0.986   .     S
C1     C44     1.302   .     S
C2     C7      1.285   .     S
C2     C3      1.291   .     S
C3     H2      0.984   .     S
C3     C4      1.281   .     S
C4     H5      0.990   .     S
C4     C5      1.277   .     S
C5     N3      1.309   .     S
C5     C6      1.282   .     S
C6     H6      0.989   .     S
C6     C7      1.280   .     S
C7     H4      0.990   .     S
N2     H9      0.950   .     S
N2     C9      1.320   .     S
N2     C8      1.323   .     S
C8     H7      0.986   .     S
C8     C50     1.302   .     S
C9     C10     1.291   .     S
C9     C14     1.285   .     S
C10    C11     1.281   .     S
C10    H8      0.984   .     S
C11    H11     0.990   .     S
C11    C12     1.277   .     S
C12    C13     1.282   .     S
C12    N4      1.309   .     S
C13    C14     1.280   .     S
C13    H12     0.989   .     S
C14    H10     0.990   .     S
N3     N4      1.165   .     S
N5     C15     1.323   .     S
N5     C16     1.320   .     S
N5     H15     0.950   .     S
C15    C48     1.302   .     S
C15    H13     0.986   .     S
C16    C21     1.285   .     S
C16    C17     1.291   .     S
C17    H14     0.984   .     S
C17    C18     1.281   .     S
C18    H17     0.990   .     S
C18    C19     1.277   .     S
C19    C20     1.282   .     S
C19    N7      1.309   .     S
C20    C21     1.280   .     S
C20    H18     0.989   .     S
C21    H16     0.990   .     S
N6     H21     0.950   .     S
N6     C22     1.323   .     S
N6     C23     1.320   .     S
C22    H19     0.986   .     S
C22    C54     1.302   .     S
C23    C28     1.285   .     S
C23    C24     1.291   .     S
C24    C25     1.281   .     S
C24    H20     0.984   .     S
C25    C26     1.277   .     S
C25    H23     0.990   .     S
C26    N8      1.309   .     S
C26    C27     1.282   .     S
C27    C28     1.280   .     S
C27    H24     0.989   .     S
C28    H22     0.990   .     S
N9     H27     0.950   .     S
N9     C30     1.320   .     S
N9     C29     1.323   .     S
C29    C46     1.302   .     S
C29    H25     0.986   .     S
C30    C35     1.285   .     S
C30    C31     1.291   .     S
C31    H26     0.984   .     S
C31    C32     1.281   .     S
C32    C33     1.277   .     S
C32    H29     0.990   .     S
C33    C34     1.282   .     S
C33    N11     1.309   .     S
C34    H30     0.989   .     S
C34    C35     1.280   .     S
C35    H28     0.990   .     S
N10    H33     0.950   .     S
N10    C36     1.323   .     S
N10    C37     1.320   .     S
C36    H31     0.986   .     S
C36    C52     1.302   .     S
C37    C38     1.291   .     S
C37    C42     1.285   .     S
C38    H32     0.984   .     S
C38    C39     1.281   .     S
C39    H35     0.990   .     S
C39    C40     1.277   .     S
C40    N12     1.309   .     S
C40    C41     1.282   .     S
C41    C42     1.280   .     S
C41    H36     0.989   .     S
C42    H34     0.990   .     S
C43    C48     1.416   .     S
C43    C44     1.417   .     S
C43    O1      1.155   .     S
C44    C45     1.416   .     S
C45    O2      1.155   .     S
C45    C46     1.417   .     S
C46    C47     1.416   .     S
C47    O3      1.155   .     S
C47    C48     1.417   .     S
C49    C50     1.417   .     S
C49    C54     1.416   .     S
C49    O4      1.155   .     S
C50    C51     1.416   .     S
C51    C52     1.417   .     S
C51    O5      1.155   .     S
C52    C53     1.416   .     S
C53    O6      1.155   .     S
C53    C54     1.417   .     S
