data_COF-43-bnn
_audit_creation_date              2016-12-13
_audit_creation_method            'Materials Studio'
_symmetry_space_group_name_H-M    'P1'
_symmetry_Int_Tables_number       1
_symmetry_cell_setting            triclinic
loop_
_symmetry_equiv_pos_as_xyz
  x,y,z
_cell_length_a                    45.8877
_cell_length_b                    45.8877
_cell_length_c                    3.9784
_cell_angle_alpha                 90.0000
_cell_angle_beta                  90.0000
_cell_angle_gamma                 120.0000
loop_
_atom_site_label
_atom_site_type_symbol
_atom_site_fract_x
_atom_site_fract_y
_atom_site_fract_z
_atom_site_U_iso_or_equiv
_atom_site_adp_type
_atom_site_occupancy
H1     H     0.57060   0.63330   0.22320   0.00000  Uiso   1.00
H2     H     0.58050   0.58450   0.22590   0.00000  Uiso   1.00
H3     H     0.36670   0.93730   0.22320   0.00000  Uiso   1.00
H4     H     0.41550   0.99600   0.22590   0.00000  Uiso   1.00
H5     H     0.06270   0.42940   0.22320   0.00000  Uiso   1.00
H6     H     0.00400   0.41950   0.22590   0.00000  Uiso   1.00
H7     H     0.42940   0.36670   0.22320   0.00000  Uiso   1.00
H8     H     0.41950   0.41550   0.22590   0.00000  Uiso   1.00
H9     H     0.63330   0.06270   0.22320   0.00000  Uiso   1.00
H10    H     0.58450   0.00400   0.22590   0.00000  Uiso   1.00
H11    H     0.93730   0.57060   0.22320   0.00000  Uiso   1.00
H12    H     0.99600   0.58050   0.22590   0.00000  Uiso   1.00
H13    H     0.42940   0.36670  -0.22320   0.00000  Uiso   1.00
H14    H     0.41950   0.41550  -0.22590   0.00000  Uiso   1.00
H15    H     0.63330   0.06270  -0.22320   0.00000  Uiso   1.00
H16    H     0.58450   0.00400  -0.22590   0.00000  Uiso   1.00
H17    H     0.93730   0.57060  -0.22320   0.00000  Uiso   1.00
H18    H     0.99600   0.58050  -0.22590   0.00000  Uiso   1.00
H19    H     0.57060   0.63330  -0.22320   0.00000  Uiso   1.00
H20    H     0.58050   0.58450  -0.22590   0.00000  Uiso   1.00
H21    H     0.36670   0.93730  -0.22320   0.00000  Uiso   1.00
H22    H     0.41550   0.99600  -0.22590   0.00000  Uiso   1.00
H23    H     0.06270   0.42940  -0.22320   0.00000  Uiso   1.00
H24    H     0.00400   0.41950  -0.22590   0.00000  Uiso   1.00
H25    H     0.42870   0.81670   0.00000   0.00000  Uiso   1.00
H26    H     0.41090   0.75820   0.00000   0.00000  Uiso   1.00
H27    H     0.32590   0.79430   0.00000   0.00000  Uiso   1.00
H28    H     0.30660   0.73550   0.00000   0.00000  Uiso   1.00
H29    H     0.37100   0.85390   0.00000   0.00000  Uiso   1.00
H30    H     0.41510   0.91080   0.00000   0.00000  Uiso   1.00
H31    H     0.39360   0.70780   0.00000   0.00000  Uiso   1.00
H32    H     0.56190   0.53190   0.00000   0.00000  Uiso   1.00
H33    H     0.60880   0.64280   0.00000   0.00000  Uiso   1.00
C1     C     0.46530   0.48200   0.00000   0.00000  Uiso   1.00
C2     C     0.48150   0.51760   0.00000   0.00000  Uiso   1.00
C3     C     0.45920   0.53320   0.00000   0.00000  Uiso   1.00
C4     C     0.51710   0.53580   0.00000   0.00000  Uiso   1.00
C5     C     0.45640   0.61030   0.00000   0.00000  Uiso   1.00
C6     C     0.36760   0.69000   0.00000   0.00000  Uiso   1.00
C7     C     0.34450   0.70190   0.00000   0.00000  Uiso   1.00
C8     C     0.80990   0.43120   0.00000   0.00000  Uiso   1.00
C9     C     0.73950   0.38310   0.00000   0.00000  Uiso   1.00
C10    C     0.79870   0.39670   0.00000   0.00000  Uiso   1.00
C11    C     0.78620   0.44170   0.00000   0.00000  Uiso   1.00
C12    C     0.76430   0.37310   0.00000   0.00000  Uiso   1.00
C13    C     0.75170   0.41830   0.00000   0.00000  Uiso   1.00
C14    C     0.57010   0.59020   0.00000   0.00000  Uiso   1.00
C15    C     0.58090   0.62720   0.00000   0.00000  Uiso   1.00
O1     O     0.42880   0.51410   0.00000   0.00000  Uiso   1.00
O2     O     0.53420   0.57120   0.00000   0.00000  Uiso   1.00
N1     N     0.47040   0.56710   0.00000   0.00000  Uiso   1.00
N2     N     0.44710   0.57860   0.00000   0.00000  Uiso   1.00
H34    H     0.18330   0.61200   0.00000   0.00000  Uiso   1.00
H35    H     0.24180   0.65270   0.00000   0.00000  Uiso   1.00
H36    H     0.20570   0.53160   0.00000   0.00000  Uiso   1.00
H37    H     0.26450   0.57110   0.00000   0.00000  Uiso   1.00
H38    H     0.14610   0.51710   0.00000   0.00000  Uiso   1.00
H39    H     0.08920   0.50430   0.00000   0.00000  Uiso   1.00
H40    H     0.29220   0.68580   0.00000   0.00000  Uiso   1.00
H41    H     0.46810   0.03000   0.00000   0.00000  Uiso   1.00
H42    H     0.35720   0.96600   0.00000   0.00000  Uiso   1.00
C16    C     0.51800   0.98330   0.00000   0.00000  Uiso   1.00
C17    C     0.48240   0.96390   0.00000   0.00000  Uiso   1.00
C18    C     0.46680   0.92600   0.00000   0.00000  Uiso   1.00
C19    C     0.46420   0.98130   0.00000   0.00000  Uiso   1.00
C20    C     0.38970   0.84610   0.00000   0.00000  Uiso   1.00
C21    C     0.31000   0.67760   0.00000   0.00000  Uiso   1.00
C22    C     0.29810   0.64260   0.00000   0.00000  Uiso   1.00
C23    C     0.56880   0.37870   0.00000   0.00000  Uiso   1.00
C24    C     0.61690   0.35640   0.00000   0.00000  Uiso   1.00
C25    C     0.60330   0.40200   0.00000   0.00000  Uiso   1.00
C26    C     0.55830   0.34450   0.00000   0.00000  Uiso   1.00
C27    C     0.62690   0.39120   0.00000   0.00000  Uiso   1.00
C28    C     0.58170   0.33340   0.00000   0.00000  Uiso   1.00
C29    C     0.40980   0.97990   0.00000   0.00000  Uiso   1.00
C30    C     0.37280   0.95370   0.00000   0.00000  Uiso   1.00
O3     O     0.48590   0.91470   0.00000   0.00000  Uiso   1.00
O4     O     0.42880   0.96300   0.00000   0.00000  Uiso   1.00
N3     N     0.43290   0.90330   0.00000   0.00000  Uiso   1.00
N4     N     0.42140   0.86850   0.00000   0.00000  Uiso   1.00
H43    H     0.38800   0.57130   0.00000   0.00000  Uiso   1.00
H44    H     0.34730   0.58910   0.00000   0.00000  Uiso   1.00
H45    H     0.46840   0.67410   0.00000   0.00000  Uiso   1.00
H46    H     0.42890   0.69340   0.00000   0.00000  Uiso   1.00
H47    H     0.48290   0.62900   0.00000   0.00000  Uiso   1.00
H48    H     0.49570   0.58490   0.00000   0.00000  Uiso   1.00
H49    H     0.31420   0.60640   0.00000   0.00000  Uiso   1.00
H50    H     0.97000   0.43810   0.00000   0.00000  Uiso   1.00
H51    H     0.03400   0.39120   0.00000   0.00000  Uiso   1.00
C31    C     0.01670   0.53470   0.00000   0.00000  Uiso   1.00
C32    C     0.03610   0.51850   0.00000   0.00000  Uiso   1.00
C33    C     0.07400   0.54080   0.00000   0.00000  Uiso   1.00
C34    C     0.01870   0.48290   0.00000   0.00000  Uiso   1.00
C35    C     0.15390   0.54360   0.00000   0.00000  Uiso   1.00
C36    C     0.32240   0.63240   0.00000   0.00000  Uiso   1.00
C37    C     0.35740   0.65550   0.00000   0.00000  Uiso   1.00
C38    C     0.62130   0.19010   0.00000   0.00000  Uiso   1.00
C39    C     0.64360   0.26050   0.00000   0.00000  Uiso   1.00
C40    C     0.59800   0.20130   0.00000   0.00000  Uiso   1.00
C41    C     0.65550   0.21380   0.00000   0.00000  Uiso   1.00
C42    C     0.60880   0.23570   0.00000   0.00000  Uiso   1.00
C43    C     0.66660   0.24830   0.00000   0.00000  Uiso   1.00
C44    C     0.02010   0.42990   0.00000   0.00000  Uiso   1.00
C45    C     0.04630   0.41910   0.00000   0.00000  Uiso   1.00
O5     O     0.08530   0.57120   0.00000   0.00000  Uiso   1.00
O6     O     0.03700   0.46580   0.00000   0.00000  Uiso   1.00
N5     N     0.09670   0.52960   0.00000   0.00000  Uiso   1.00
N6     N     0.13150   0.55290   0.00000   0.00000  Uiso   1.00
H52    H     0.57130   0.18330   0.00000   0.00000  Uiso   1.00
H53    H     0.58910   0.24180   0.00000   0.00000  Uiso   1.00
H54    H     0.67410   0.20570   0.00000   0.00000  Uiso   1.00
H55    H     0.69340   0.26450   0.00000   0.00000  Uiso   1.00
H56    H     0.62900   0.14610   0.00000   0.00000  Uiso   1.00
H57    H     0.58490   0.08920   0.00000   0.00000  Uiso   1.00
H58    H     0.60640   0.29220   0.00000   0.00000  Uiso   1.00
H59    H     0.43810   0.46810   0.00000   0.00000  Uiso   1.00
H60    H     0.39120   0.35720   0.00000   0.00000  Uiso   1.00
C46    C     0.53470   0.51800   0.00000   0.00000  Uiso   1.00
C47    C     0.51850   0.48240   0.00000   0.00000  Uiso   1.00
C48    C     0.54080   0.46680   0.00000   0.00000  Uiso   1.00
C49    C     0.48290   0.46420   0.00000   0.00000  Uiso   1.00
C50    C     0.54360   0.38970   0.00000   0.00000  Uiso   1.00
C51    C     0.63240   0.31000   0.00000   0.00000  Uiso   1.00
C52    C     0.65550   0.29810   0.00000   0.00000  Uiso   1.00
C53    C     0.19010   0.56880   0.00000   0.00000  Uiso   1.00
C54    C     0.26050   0.61690   0.00000   0.00000  Uiso   1.00
C55    C     0.20130   0.60330   0.00000   0.00000  Uiso   1.00
C56    C     0.21380   0.55830   0.00000   0.00000  Uiso   1.00
C57    C     0.23570   0.62690   0.00000   0.00000  Uiso   1.00
C58    C     0.24830   0.58170   0.00000   0.00000  Uiso   1.00
C59    C     0.42990   0.40980   0.00000   0.00000  Uiso   1.00
C60    C     0.41910   0.37280   0.00000   0.00000  Uiso   1.00
O7     O     0.57120   0.48590   0.00000   0.00000  Uiso   1.00
O8     O     0.46580   0.42880   0.00000   0.00000  Uiso   1.00
N7     N     0.52960   0.43290   0.00000   0.00000  Uiso   1.00
N8     N     0.55290   0.42140   0.00000   0.00000  Uiso   1.00
H61    H     0.81670   0.38800   0.00000   0.00000  Uiso   1.00
H62    H     0.75820   0.34730   0.00000   0.00000  Uiso   1.00
H63    H     0.79430   0.46840   0.00000   0.00000  Uiso   1.00
H64    H     0.73550   0.42890   0.00000   0.00000  Uiso   1.00
H65    H     0.85390   0.48290   0.00000   0.00000  Uiso   1.00
H66    H     0.91080   0.49570   0.00000   0.00000  Uiso   1.00
H67    H     0.70780   0.31420   0.00000   0.00000  Uiso   1.00
H68    H     0.53190   0.97000   0.00000   0.00000  Uiso   1.00
H69    H     0.64280   0.03400   0.00000   0.00000  Uiso   1.00
C61    C     0.48200   0.01670   0.00000   0.00000  Uiso   1.00
C62    C     0.51760   0.03610   0.00000   0.00000  Uiso   1.00
C63    C     0.53320   0.07400   0.00000   0.00000  Uiso   1.00
C64    C     0.53580   0.01870   0.00000   0.00000  Uiso   1.00
C65    C     0.61030   0.15390   0.00000   0.00000  Uiso   1.00
C66    C     0.69000   0.32240   0.00000   0.00000  Uiso   1.00
C67    C     0.70190   0.35740   0.00000   0.00000  Uiso   1.00
C68    C     0.43120   0.62130   0.00000   0.00000  Uiso   1.00
C69    C     0.38310   0.64360   0.00000   0.00000  Uiso   1.00
C70    C     0.39670   0.59800   0.00000   0.00000  Uiso   1.00
C71    C     0.44170   0.65550   0.00000   0.00000  Uiso   1.00
C72    C     0.37310   0.60880   0.00000   0.00000  Uiso   1.00
C73    C     0.41830   0.66660   0.00000   0.00000  Uiso   1.00
C74    C     0.59020   0.02010   0.00000   0.00000  Uiso   1.00
C75    C     0.62720   0.04630   0.00000   0.00000  Uiso   1.00
O9     O     0.51410   0.08530   0.00000   0.00000  Uiso   1.00
O10    O     0.57120   0.03700   0.00000   0.00000  Uiso   1.00
N9     N     0.56710   0.09670   0.00000   0.00000  Uiso   1.00
N10    N     0.57860   0.13150   0.00000   0.00000  Uiso   1.00
H70    H     0.61200   0.42870   0.00000   0.00000  Uiso   1.00
H71    H     0.65270   0.41090   0.00000   0.00000  Uiso   1.00
H72    H     0.53160   0.32590   0.00000   0.00000  Uiso   1.00
H73    H     0.57110   0.30660   0.00000   0.00000  Uiso   1.00
H74    H     0.51710   0.37100   0.00000   0.00000  Uiso   1.00
H75    H     0.50430   0.41510   0.00000   0.00000  Uiso   1.00
H76    H     0.68580   0.39360   0.00000   0.00000  Uiso   1.00
H77    H     0.03000   0.56190   0.00000   0.00000  Uiso   1.00
H78    H     0.96600   0.60880   0.00000   0.00000  Uiso   1.00
C76    C     0.98330   0.46530   0.00000   0.00000  Uiso   1.00
C77    C     0.96390   0.48150   0.00000   0.00000  Uiso   1.00
C78    C     0.92600   0.45920   0.00000   0.00000  Uiso   1.00
C79    C     0.98130   0.51710   0.00000   0.00000  Uiso   1.00
C80    C     0.84610   0.45640   0.00000   0.00000  Uiso   1.00
C81    C     0.67760   0.36760   0.00000   0.00000  Uiso   1.00
C82    C     0.64260   0.34450   0.00000   0.00000  Uiso   1.00
C83    C     0.37870   0.80990   0.00000   0.00000  Uiso   1.00
C84    C     0.35640   0.73950   0.00000   0.00000  Uiso   1.00
C85    C     0.40200   0.79870   0.00000   0.00000  Uiso   1.00
C86    C     0.34450   0.78620   0.00000   0.00000  Uiso   1.00
C87    C     0.39120   0.76430   0.00000   0.00000  Uiso   1.00
C88    C     0.33340   0.75170   0.00000   0.00000  Uiso   1.00
C89    C     0.97990   0.57010   0.00000   0.00000  Uiso   1.00
C90    C     0.95370   0.58090   0.00000   0.00000  Uiso   1.00
O11    O     0.91470   0.42880   0.00000   0.00000  Uiso   1.00
O12    O     0.96300   0.53420   0.00000   0.00000  Uiso   1.00
N11    N     0.90330   0.47040   0.00000   0.00000  Uiso   1.00
N12    N     0.86850   0.44710   0.00000   0.00000  Uiso   1.00
loop_
_geom_bond_atom_site_label_1
_geom_bond_atom_site_label_2
_geom_bond_distance
_geom_bond_site_symmetry_2
_ccdc_geom_bond_type
H1     C15     1.106   .     S
H2     C14     1.108   .     S
H3     C30     1.106   .     S
H4     C29     1.108   .     S
H5     C45     1.106   .     S
H6     C44     1.108   .     S
H7     C60     1.106   .     S
H8     C59     1.108   .     S
H9     C75     1.106   .     S
H10    C74     1.108   .     S
H11    C90     1.106   .     S
H12    C89     1.108   .     S
H13    C60     1.106   .     S
H14    C59     1.108   .     S
H15    C75     1.106   .     S
H16    C74     1.108   .     S
H17    C90     1.106   .     S
H18    C89     1.108   .     S
H19    C15     1.106   .     S
H20    C14     1.108   .     S
H21    C30     1.106   .     S
H22    C29     1.108   .     S
H23    C45     1.106   .     S
H24    C44     1.108   .     S
H25    C85     1.082   .     S
H26    C87     1.072   .     S
H27    C86     1.088   .     S
H28    C88     1.073   .     S
H29    C20     1.082   .     S
H30    N3      1.033   .     S
H31    C6      1.056   .     S
H32    C46     1.081   .     S
H33    C15     1.111   .     S
C1     H59     1.081   .     S
C1     C49     1.407   .     S
C1     C2      1.417   .     S
C2     C3      1.514   .     S
C2     C4      1.415   .     S
C3     O1      1.221   .     S
C3     N1      1.373   .     S
C4     O2      1.407   .     S
C4     C46     1.407   .     S
C5     C68     1.475   .     S
C5     H47     1.082   .     S
C5     N2      1.295   .     S
C6     C7      1.414   .     S
C6     C37     1.409   .     S
C7     C21     1.409   .     S
C7     C84     1.527   .     S
C8     C11     1.392   .     S
C8     C80     1.475   .     S
C8     C10     1.399   .     S
C9     C12     1.424   .     S
C9     C67     1.527   .     S
C9     C13     1.421   .     S
C10    C12     1.398   .     S
C10    H61     1.082   .     S
C11    C13     1.400   .     S
C11    H63     1.088   .     S
C12    H62     1.072   .     S
C13    H64     1.073   .     S
C14    C15     1.512   .     S
C14    O2      1.427   .     S
N1     N2      1.409   .     S
N1     H48     1.033   .     S
H34    C55     1.082   .     S
H35    C57     1.072   .     S
H36    C56     1.088   .     S
H37    C58     1.073   .     S
H38    C35     1.082   .     S
H39    N5      1.033   .     S
H40    C21     1.056   .     S
H41    C61     1.081   .     S
H42    C30     1.111   .     S
C16    C17     1.417   .     S
C16    H68     1.081   .     S
C17    C19     1.415   .     S
C17    C18     1.514   .     S
C18    O3      1.221   .     S
C18    N3      1.373   .     S
C19    O4      1.407   .     S
C20    C83     1.475   .     S
C20    N4      1.295   .     S
C21    C22     1.414   .     S
C22    C36     1.409   .     S
C22    C54     1.527   .     S
C23    C50     1.475   .     S
C23    C25     1.399   .     S
C23    C26     1.392   .     S
C24    C28     1.421   .     S
C24    C82     1.527   .     S
C24    C27     1.424   .     S
C25    H70     1.082   .     S
C25    C27     1.398   .     S
C26    C28     1.400   .     S
C26    H72     1.088   .     S
C27    H71     1.072   .     S
C28    H73     1.073   .     S
C29    C30     1.512   .     S
C29    O4      1.427   .     S
N3     N4      1.409   .     S
H43    C70     1.082   .     S
H44    C72     1.072   .     S
H45    C71     1.088   .     S
H46    C73     1.073   .     S
H49    C36     1.056   .     S
H50    C76     1.081   .     S
H51    C45     1.111   .     S
C31    C32     1.417   .     S
C31    H77     1.081   .     S
C32    C33     1.514   .     S
C32    C34     1.415   .     S
C33    O5      1.221   .     S
C33    N5      1.373   .     S
C34    O6      1.407   .     S
C35    N6      1.295   .     S
C35    C53     1.475   .     S
C36    C37     1.414   .     S
C37    C69     1.527   .     S
C38    C40     1.399   .     S
C38    C41     1.392   .     S
C38    C65     1.475   .     S
C39    C42     1.424   .     S
C39    C43     1.421   .     S
C39    C52     1.527   .     S
C40    H52     1.082   .     S
C40    C42     1.398   .     S
C41    H54     1.088   .     S
C41    C43     1.400   .     S
C42    H53     1.072   .     S
C43    H55     1.073   .     S
C44    C45     1.512   .     S
C44    O6      1.427   .     S
N5     N6      1.409   .     S
H56    C65     1.082   .     S
H57    N9      1.033   .     S
H58    C51     1.056   .     S
H60    C60     1.111   .     S
C46    C47     1.417   .     S
C47    C48     1.514   .     S
C47    C49     1.415   .     S
C48    O7      1.221   .     S
C48    N7      1.373   .     S
C49    O8      1.407   .     S
C50    H74     1.082   .     S
C50    N8      1.295   .     S
C51    C52     1.414   .     S
C51    C82     1.409   .     S
C52    C66     1.409   .     S
C53    C56     1.392   .     S
C53    C55     1.399   .     S
C54    C58     1.421   .     S
C54    C57     1.424   .     S
C55    C57     1.398   .     S
C56    C58     1.400   .     S
C59    O8      1.427   .     S
C59    C60     1.512   .     S
N7     N8      1.409   .     S
N7     H75     1.033   .     S
H65    C80     1.082   .     S
H66    N11     1.033   .     S
H67    C66     1.056   .     S
H69    C75     1.111   .     S
C61    C62     1.417   .     S
C62    C64     1.415   .     S
C62    C63     1.514   .     S
C63    O9      1.221   .     S
C63    N9      1.373   .     S
C64    O10     1.407   .     S
C65    N10     1.295   .     S
C66    C67     1.414   .     S
C67    C81     1.409   .     S
C68    C70     1.399   .     S
C68    C71     1.392   .     S
C69    C73     1.421   .     S
C69    C72     1.424   .     S
C70    C72     1.398   .     S
C71    C73     1.400   .     S
C74    O10     1.427   .     S
C74    C75     1.512   .     S
N9     N10     1.409   .     S
H76    C81     1.056   .     S
H78    C90     1.111   .     S
C76    C77     1.417   .     S
C77    C78     1.514   .     S
C77    C79     1.415   .     S
C78    N11     1.373   .     S
C78    O11     1.221   .     S
C79    O12     1.407   .     S
C80    N12     1.295   .     S
C81    C82     1.414   .     S
C83    C86     1.392   .     S
C83    C85     1.399   .     S
C84    C88     1.421   .     S
C84    C87     1.424   .     S
C85    C87     1.398   .     S
C86    C88     1.400   .     S
C89    C90     1.512   .     S
C89    O12     1.427   .     S
N11    N12     1.409   .     S
