data_COF-10
_audit_creation_date              2016-12-13
_audit_creation_method            'Materials Studio'
_symmetry_space_group_name_H-M    'P1'
_symmetry_Int_Tables_number       1
_symmetry_cell_setting            triclinic
loop_
_symmetry_equiv_pos_as_xyz
  x,y,z
_cell_length_a                    37.8099
_cell_length_b                    37.8099
_cell_length_c                    3.4763
_cell_angle_alpha                 90.0000
_cell_angle_beta                  90.0000
_cell_angle_gamma                 120.0000
loop_
_atom_site_label
_atom_site_type_symbol
_atom_site_fract_x
_atom_site_fract_y
_atom_site_fract_z
_atom_site_U_iso_or_equiv
_atom_site_adp_type
_atom_site_occupancy
B1     B     0.84269   0.42135   0.50000   0.00000  Uiso   1.00
C1     C     0.88995   0.44497   0.50000   0.00000  Uiso   1.00
C2     C     0.97683   0.48841   0.50000   0.00000  Uiso   1.00
B2     B     0.57866   0.42135   0.50000   0.00000  Uiso   1.00
C3     C     0.55503   0.44497   0.50000   0.00000  Uiso   1.00
C4     C     0.51158   0.48841   0.50000   0.00000  Uiso   1.00
B3     B     0.57865   0.15731   0.50000   0.00000  Uiso   1.00
C5     C     0.55502   0.11005   0.50000   0.00000  Uiso   1.00
C6     C     0.51158   0.02317   0.50000   0.00000  Uiso   1.00
B4     B     0.15731   0.57865   0.50000   0.00000  Uiso   1.00
C7     C     0.11005   0.55502   0.50000   0.00000  Uiso   1.00
C8     C     0.02317   0.51159   0.50000   0.00000  Uiso   1.00
B5     B     0.42134   0.57865   0.50000   0.00000  Uiso   1.00
C9     C     0.44497   0.55502   0.50000   0.00000  Uiso   1.00
C10    C     0.48842   0.51159   0.50000   0.00000  Uiso   1.00
B6     B     0.42135   0.84269   0.50000   0.00000  Uiso   1.00
C11    C     0.44497   0.88995   0.50000   0.00000  Uiso   1.00
C12    C     0.48841   0.97683   0.50000   0.00000  Uiso   1.00
O1     O     0.81778   0.37650   0.50000   0.00000  Uiso   1.00
C13    C     0.91150   0.42390   0.50000   0.00000  Uiso   1.00
C14    C     0.95417   0.44514   0.50000   0.00000  Uiso   1.00
C15    C     0.70447   0.33323   0.50000   0.00000  Uiso   1.00
C16    C     0.77887   0.37144   0.50000   0.00000  Uiso   1.00
C17    C     0.74277   0.33436   0.50000   0.00000  Uiso   1.00
H1     H     0.74615   0.30779   0.50000   0.00000  Uiso   1.00
H2     H     0.89543   0.39081   0.50000   0.00000  Uiso   1.00
H3     H     0.96838   0.42662   0.50000   0.00000  Uiso   1.00
O2     O     0.62350   0.44128   0.50000   0.00000  Uiso   1.00
C18    C     0.57610   0.48760   0.50000   0.00000  Uiso   1.00
C19    C     0.55486   0.50903   0.50000   0.00000  Uiso   1.00
C20    C     0.66677   0.37124   0.50000   0.00000  Uiso   1.00
C21    C     0.62856   0.40743   0.50000   0.00000  Uiso   1.00
C22    C     0.66564   0.40841   0.50000   0.00000  Uiso   1.00
H4     H     0.69221   0.43836   0.50000   0.00000  Uiso   1.00
H5     H     0.60919   0.50462   0.50000   0.00000  Uiso   1.00
H6     H     0.57338   0.54176   0.50000   0.00000  Uiso   1.00
O3     O     0.55872   0.18222   0.50000   0.00000  Uiso   1.00
C23    C     0.51240   0.08850   0.50000   0.00000  Uiso   1.00
C24    C     0.49097   0.04583   0.50000   0.00000  Uiso   1.00
C25    C     0.62876   0.29553   0.50000   0.00000  Uiso   1.00
C26    C     0.59257   0.22113   0.50000   0.00000  Uiso   1.00
C27    C     0.59159   0.25723   0.50000   0.00000  Uiso   1.00
H7     H     0.56164   0.25385   0.50000   0.00000  Uiso   1.00
H8     H     0.49538   0.10457   0.50000   0.00000  Uiso   1.00
H9     H     0.45824   0.03162   0.50000   0.00000  Uiso   1.00
O4     O     0.18222   0.62350   0.50000   0.00000  Uiso   1.00
C28    C     0.08850   0.57610   0.50000   0.00000  Uiso   1.00
C29    C     0.04583   0.55486   0.50000   0.00000  Uiso   1.00
C30    C     0.29553   0.66677   0.50000   0.00000  Uiso   1.00
C31    C     0.22113   0.62856   0.50000   0.00000  Uiso   1.00
C32    C     0.25723   0.66564   0.50000   0.00000  Uiso   1.00
H10    H     0.25385   0.69221   0.50000   0.00000  Uiso   1.00
H11    H     0.10457   0.60919   0.50000   0.00000  Uiso   1.00
H12    H     0.03162   0.57338   0.50000   0.00000  Uiso   1.00
O5     O     0.37650   0.55872   0.50000   0.00000  Uiso   1.00
C33    C     0.42390   0.51240   0.50000   0.00000  Uiso   1.00
C34    C     0.44514   0.49097   0.50000   0.00000  Uiso   1.00
C35    C     0.33323   0.62876   0.50000   0.00000  Uiso   1.00
C36    C     0.37144   0.59257   0.50000   0.00000  Uiso   1.00
C37    C     0.33436   0.59159   0.50000   0.00000  Uiso   1.00
H13    H     0.30779   0.56164   0.50000   0.00000  Uiso   1.00
H14    H     0.39081   0.49538   0.50000   0.00000  Uiso   1.00
H15    H     0.42662   0.45824   0.50000   0.00000  Uiso   1.00
O6     O     0.44128   0.81778   0.50000   0.00000  Uiso   1.00
C38    C     0.48760   0.91150   0.50000   0.00000  Uiso   1.00
C39    C     0.50903   0.95417   0.50000   0.00000  Uiso   1.00
C40    C     0.37124   0.70447   0.50000   0.00000  Uiso   1.00
C41    C     0.40743   0.77887   0.50000   0.00000  Uiso   1.00
C42    C     0.40841   0.74277   0.50000   0.00000  Uiso   1.00
H16    H     0.43836   0.74615   0.50000   0.00000  Uiso   1.00
H17    H     0.50462   0.89543   0.50000   0.00000  Uiso   1.00
H18    H     0.54176   0.96838   0.50000   0.00000  Uiso   1.00
O7     O     0.37650   0.81778   0.50000   0.00000  Uiso   1.00
C43    C     0.42390   0.91150   0.50000   0.00000  Uiso   1.00
C44    C     0.44514   0.95417   0.50000   0.00000  Uiso   1.00
C45    C     0.33323   0.70447   0.50000   0.00000  Uiso   1.00
C46    C     0.37144   0.77887   0.50000   0.00000  Uiso   1.00
C47    C     0.33436   0.74277   0.50000   0.00000  Uiso   1.00
H19    H     0.30779   0.74615   0.50000   0.00000  Uiso   1.00
H20    H     0.39081   0.89543   0.50000   0.00000  Uiso   1.00
H21    H     0.42662   0.96838   0.50000   0.00000  Uiso   1.00
O8     O     0.44128   0.62350   0.50000   0.00000  Uiso   1.00
C48    C     0.48760   0.57610   0.50000   0.00000  Uiso   1.00
C49    C     0.50903   0.55486   0.50000   0.00000  Uiso   1.00
C50    C     0.37124   0.66677   0.50000   0.00000  Uiso   1.00
C51    C     0.40743   0.62856   0.50000   0.00000  Uiso   1.00
C52    C     0.40841   0.66564   0.50000   0.00000  Uiso   1.00
H22    H     0.43836   0.69221   0.50000   0.00000  Uiso   1.00
H23    H     0.50462   0.60919   0.50000   0.00000  Uiso   1.00
H24    H     0.54176   0.57338   0.50000   0.00000  Uiso   1.00
O9     O     0.18222   0.55872   0.50000   0.00000  Uiso   1.00
C53    C     0.08850   0.51240   0.50000   0.00000  Uiso   1.00
C54    C     0.04583   0.49097   0.50000   0.00000  Uiso   1.00
C55    C     0.29553   0.62876   0.50000   0.00000  Uiso   1.00
C56    C     0.22113   0.59257   0.50000   0.00000  Uiso   1.00
C57    C     0.25723   0.59159   0.50000   0.00000  Uiso   1.00
H25    H     0.25385   0.56164   0.50000   0.00000  Uiso   1.00
H26    H     0.10457   0.49538   0.50000   0.00000  Uiso   1.00
H27    H     0.03162   0.45824   0.50000   0.00000  Uiso   1.00
O10    O     0.62350   0.18222   0.50000   0.00000  Uiso   1.00
C58    C     0.57610   0.08850   0.50000   0.00000  Uiso   1.00
C59    C     0.55486   0.04583   0.50000   0.00000  Uiso   1.00
C60    C     0.66677   0.29553   0.50000   0.00000  Uiso   1.00
C61    C     0.62856   0.22113   0.50000   0.00000  Uiso   1.00
C62    C     0.66564   0.25723   0.50000   0.00000  Uiso   1.00
H28    H     0.69221   0.25385   0.50000   0.00000  Uiso   1.00
H29    H     0.60919   0.10457   0.50000   0.00000  Uiso   1.00
H30    H     0.57338   0.03162   0.50000   0.00000  Uiso   1.00
O11    O     0.55872   0.37650   0.50000   0.00000  Uiso   1.00
C63    C     0.51240   0.42390   0.50000   0.00000  Uiso   1.00
C64    C     0.49097   0.44514   0.50000   0.00000  Uiso   1.00
C65    C     0.62876   0.33323   0.50000   0.00000  Uiso   1.00
C66    C     0.59257   0.37144   0.50000   0.00000  Uiso   1.00
C67    C     0.59159   0.33436   0.50000   0.00000  Uiso   1.00
H31    H     0.56164   0.30779   0.50000   0.00000  Uiso   1.00
H32    H     0.49538   0.39081   0.50000   0.00000  Uiso   1.00
H33    H     0.45824   0.42662   0.50000   0.00000  Uiso   1.00
O12    O     0.81778   0.44128   0.50000   0.00000  Uiso   1.00
C68    C     0.91150   0.48760   0.50000   0.00000  Uiso   1.00
C69    C     0.95417   0.50903   0.50000   0.00000  Uiso   1.00
C70    C     0.70447   0.37124   0.50000   0.00000  Uiso   1.00
C71    C     0.77887   0.40743   0.50000   0.00000  Uiso   1.00
C72    C     0.74277   0.40841   0.50000   0.00000  Uiso   1.00
H34    H     0.74615   0.43836   0.50000   0.00000  Uiso   1.00
H35    H     0.89543   0.50462   0.50000   0.00000  Uiso   1.00
H36    H     0.96838   0.54176   0.50000   0.00000  Uiso   1.00
loop_
_geom_bond_atom_site_label_1
_geom_bond_atom_site_label_2
_geom_bond_distance
_geom_bond_site_symmetry_2
_ccdc_geom_bond_type
B1     O12     1.471   .     S
B1     C1      1.547   .     S
B1     O1      1.471   .     S
C1     C68     1.396   .     S
C1     C13     1.396   .     S
C2     C69     1.418   .     S
C2     C14     1.418   .     S
B2     C3      1.547   .     S
B2     O2      1.471   .     S
B2     O11     1.471   .     S
C3     C18     1.396   .     S
C3     C63     1.396   .     S
C4     C10     1.517   .     S
C4     C19     1.418   .     S
C4     C64     1.418   .     S
B3     C5      1.547   .     S
B3     O3      1.471   .     S
B3     O10     1.471   .     S
C5     C23     1.396   .     S
C5     C58     1.396   .     S
C6     C24     1.418   .     S
C6     C59     1.418   .     S
B4     O9      1.471   .     S
B4     C7      1.547   .     S
B4     O4      1.471   .     S
C7     C28     1.396   .     S
C7     C53     1.396   .     S
C8     C54     1.418   .     S
C8     C29     1.418   .     S
B5     O5      1.471   .     S
B5     C9      1.547   .     S
B5     O8      1.471   .     S
C9     C48     1.396   .     S
C9     C33     1.396   .     S
C10    C34     1.418   .     S
C10    C49     1.418   .     S
B6     O6      1.471   .     S
B6     O7      1.471   .     S
B6     C11     1.547   .     S
C11    C38     1.396   .     S
C11    C43     1.396   .     S
C12    C39     1.418   .     S
C12    C44     1.418   .     S
O1     C16     1.385   .     S
C13    H2      1.084   .     S
C13    C14     1.397   .     S
C14    H3      1.075   .     S
C15    C70     1.437   .     S
C15    C17     1.427   .     S
C15    C60     1.425   .     S
C16    C17     1.384   .     S
C16    C71     1.361   .     S
C17    H1      1.074   .     S
O2     C21     1.385   .     S
C18    H5      1.084   .     S
C18    C19     1.397   .     S
C19    H6      1.075   .     S
C20    C65     1.437   .     S
C20    C70     1.425   .     S
C20    C22     1.427   .     S
C21    C22     1.384   .     S
C21    C66     1.361   .     S
C22    H4      1.074   .     S
O3     C26     1.385   .     S
C23    H8      1.084   .     S
C23    C24     1.397   .     S
C24    H9      1.075   .     S
C25    C60     1.437   .     S
C25    C65     1.425   .     S
C25    C27     1.427   .     S
C26    C27     1.384   .     S
C26    C61     1.361   .     S
C27    H7      1.074   .     S
O4     C31     1.385   .     S
C28    C29     1.397   .     S
C28    H11     1.084   .     S
C29    H12     1.075   .     S
C30    C32     1.427   .     S
C30    C45     1.425   .     S
C30    C55     1.437   .     S
C31    C32     1.384   .     S
C31    C56     1.361   .     S
C32    H10     1.074   .     S
O5     C36     1.385   .     S
C33    H14     1.084   .     S
C33    C34     1.397   .     S
C34    H15     1.075   .     S
C35    C55     1.425   .     S
C35    C50     1.437   .     S
C35    C37     1.427   .     S
C36    C37     1.384   .     S
C36    C51     1.361   .     S
C37    H13     1.074   .     S
O6     C41     1.385   .     S
C38    H17     1.084   .     S
C38    C39     1.397   .     S
C39    H18     1.075   .     S
C40    C42     1.427   .     S
C40    C45     1.437   .     S
C40    C50     1.425   .     S
C41    C46     1.361   .     S
C41    C42     1.384   .     S
C42    H16     1.074   .     S
O7     C46     1.385   .     S
C43    H20     1.084   .     S
C43    C44     1.397   .     S
C44    H21     1.075   .     S
C45    C47     1.427   .     S
C46    C47     1.384   .     S
C47    H19     1.074   .     S
O8     C51     1.385   .     S
C48    C49     1.397   .     S
C48    H23     1.084   .     S
C49    H24     1.075   .     S
C50    C52     1.427   .     S
C51    C52     1.384   .     S
C52    H22     1.074   .     S
O9     C56     1.385   .     S
C53    H26     1.084   .     S
C53    C54     1.397   .     S
C54    H27     1.075   .     S
C55    C57     1.427   .     S
C56    C57     1.384   .     S
C57    H25     1.074   .     S
O10    C61     1.385   .     S
C58    H29     1.084   .     S
C58    C59     1.397   .     S
C59    H30     1.075   .     S
C60    C62     1.427   .     S
C61    C62     1.384   .     S
C62    H28     1.074   .     S
O11    C66     1.385   .     S
C63    H32     1.084   .     S
C63    C64     1.397   .     S
C64    H33     1.075   .     S
C65    C67     1.427   .     S
C66    C67     1.384   .     S
C67    H31     1.074   .     S
O12    C71     1.385   .     S
C68    C69     1.397   .     S
C68    H35     1.084   .     S
C69    H36     1.075   .     S
C70    C72     1.427   .     S
C71    C72     1.384   .     S
C72    H34     1.074   .     S
