data_COF-11A
_audit_creation_date              2016-12-13
_audit_creation_method            'Materials Studio'
_symmetry_space_group_name_H-M    'P1'
_symmetry_Int_Tables_number       1
_symmetry_cell_setting            triclinic
loop_
_symmetry_equiv_pos_as_xyz
  x,y,z
_cell_length_a                    21.4896
_cell_length_b                    21.4896
_cell_length_c                    4.1572
_cell_angle_alpha                 90.0000
_cell_angle_beta                  90.0000
_cell_angle_gamma                 120.0000
loop_
_atom_site_label
_atom_site_type_symbol
_atom_site_fract_x
_atom_site_fract_y
_atom_site_fract_z
_atom_site_U_iso_or_equiv
_atom_site_adp_type
_atom_site_occupancy
C1     C     0.56845   0.00062   0.50000   0.00000  Uiso   1.00
C2     C     0.99938   0.56783   0.50000   0.00000  Uiso   1.00
C3     C     0.43217   0.43155   0.50000   0.00000  Uiso   1.00
C4     C     0.43155   0.99938   0.50000   0.00000  Uiso   1.00
C5     C     0.00062   0.43217   0.50000   0.00000  Uiso   1.00
C6     C     0.56783   0.56845   0.50000   0.00000  Uiso   1.00
C7     C     0.56429   0.06420   0.50000   0.00000  Uiso   1.00
C8     C     0.93580   0.50009   0.50000   0.00000  Uiso   1.00
C9     C     0.49991   0.43571   0.50000   0.00000  Uiso   1.00
C10    C     0.43571   0.93580   0.50000   0.00000  Uiso   1.00
C11    C     0.06420   0.49991   0.50000   0.00000  Uiso   1.00
C12    C     0.50009   0.56429   0.50000   0.00000  Uiso   1.00
O1     O     0.62055   0.13205   0.50000   0.00000  Uiso   1.00
O2     O     0.86795   0.48850   0.50000   0.00000  Uiso   1.00
O3     O     0.51150   0.37945   0.50000   0.00000  Uiso   1.00
O4     O     0.37945   0.86795   0.50000   0.00000  Uiso   1.00
O5     O     0.13205   0.51150   0.50000   0.00000  Uiso   1.00
O6     O     0.48850   0.62055   0.50000   0.00000  Uiso   1.00
C13    C     0.06399   0.56529   0.50000   0.00000  Uiso   1.00
C14    C     0.43471   0.49871   0.50000   0.00000  Uiso   1.00
C15    C     0.50130   0.93601   0.50000   0.00000  Uiso   1.00
C16    C     0.93601   0.43471   0.50000   0.00000  Uiso   1.00
C17    C     0.56529   0.50130   0.50000   0.00000  Uiso   1.00
C18    C     0.49871   0.06399   0.50000   0.00000  Uiso   1.00
O7     O     0.13232   0.62073   0.50000   0.00000  Uiso   1.00
O8     O     0.37927   0.51159   0.50000   0.00000  Uiso   1.00
O9     O     0.48841   0.86768   0.50000   0.00000  Uiso   1.00
O10    O     0.86768   0.37927   0.50000   0.00000  Uiso   1.00
O11    O     0.62073   0.48841   0.50000   0.00000  Uiso   1.00
O12    O     0.51159   0.13232   0.50000   0.00000  Uiso   1.00
C19    C     0.62859   0.25710   0.50000   0.00000  Uiso   1.00
C20    C     0.74291   0.37150   0.50000   0.00000  Uiso   1.00
C21    C     0.62850   0.37141   0.50000   0.00000  Uiso   1.00
C22    C     0.37141   0.74291   0.50000   0.00000  Uiso   1.00
C23    C     0.25710   0.62850   0.50000   0.00000  Uiso   1.00
C24    C     0.37150   0.62859   0.50000   0.00000  Uiso   1.00
B1     B     0.58860   0.17706   0.50000   0.00000  Uiso   1.00
B2     B     0.82294   0.41154   0.50000   0.00000  Uiso   1.00
B3     B     0.58846   0.41140   0.50000   0.00000  Uiso   1.00
B4     B     0.41140   0.82294   0.50000   0.00000  Uiso   1.00
B5     B     0.17706   0.58846   0.50000   0.00000  Uiso   1.00
B6     B     0.41154   0.58860   0.50000   0.00000  Uiso   1.00
C25    C     0.29561   0.59114   0.50000   0.00000  Uiso   1.00
C26    C     0.40886   0.70447   0.50000   0.00000  Uiso   1.00
C27    C     0.29553   0.70439   0.50000   0.00000  Uiso   1.00
C28    C     0.70439   0.40886   0.50000   0.00000  Uiso   1.00
C29    C     0.59114   0.29553   0.50000   0.00000  Uiso   1.00
C30    C     0.70447   0.29561   0.50000   0.00000  Uiso   1.00
H1     H     0.46408   0.73208   0.50000   0.00000  Uiso   1.00
H2     H     0.26792   0.73199   0.50000   0.00000  Uiso   1.00
H3     H     0.26801   0.53592   0.50000   0.00000  Uiso   1.00
H4     H     0.53592   0.26792   0.50000   0.00000  Uiso   1.00
H5     H     0.73208   0.26801   0.50000   0.00000  Uiso   1.00
H6     H     0.73199   0.46408   0.50000   0.00000  Uiso   1.00
H7     H     0.63138   0.67001   0.28946   0.00000  Uiso   1.00
H8     H     0.32999   0.96137   0.28946   0.00000  Uiso   1.00
H9     H     0.03863   0.36862   0.28946   0.00000  Uiso   1.00
H10    H     0.36862   0.32999   0.28946   0.00000  Uiso   1.00
H11    H     0.67001   0.03863   0.28946   0.00000  Uiso   1.00
H12    H     0.96137   0.63138   0.28946   0.00000  Uiso   1.00
H13    H     0.36862   0.32999   0.71054   0.00000  Uiso   1.00
H14    H     0.67001   0.03863   0.71054   0.00000  Uiso   1.00
H15    H     0.96137   0.63138   0.71054   0.00000  Uiso   1.00
H16    H     0.63138   0.67001   0.71054   0.00000  Uiso   1.00
H17    H     0.32999   0.96137   0.71054   0.00000  Uiso   1.00
H18    H     0.03863   0.36862   0.71054   0.00000  Uiso   1.00
H19    H     0.71134   0.61517   0.28889   0.00000  Uiso   1.00
H20    H     0.38483   0.09616   0.28889   0.00000  Uiso   1.00
H21    H     0.90384   0.28867   0.28889   0.00000  Uiso   1.00
H22    H     0.28867   0.38483   0.28889   0.00000  Uiso   1.00
H23    H     0.61517   0.90384   0.28889   0.00000  Uiso   1.00
H24    H     0.09616   0.71134   0.28889   0.00000  Uiso   1.00
H25    H     0.28867   0.38483   0.71110   0.00000  Uiso   1.00
H26    H     0.61517   0.90384   0.71110   0.00000  Uiso   1.00
H27    H     0.09616   0.71134   0.71110   0.00000  Uiso   1.00
H28    H     0.71134   0.61517   0.71110   0.00000  Uiso   1.00
H29    H     0.38483   0.09616   0.71110   0.00000  Uiso   1.00
H30    H     0.90384   0.28867   0.71110   0.00000  Uiso   1.00
H31    H     0.76911   0.75121   0.71235   0.00000  Uiso   1.00
H32    H     0.24879   0.01790   0.71235   0.00000  Uiso   1.00
H33    H     0.98210   0.23089   0.71235   0.00000  Uiso   1.00
H34    H     0.23089   0.24879   0.71235   0.00000  Uiso   1.00
H35    H     0.75121   0.98210   0.71235   0.00000  Uiso   1.00
H36    H     0.01790   0.76911   0.71235   0.00000  Uiso   1.00
H37    H     0.23089   0.24879   0.28765   0.00000  Uiso   1.00
H38    H     0.75121   0.98210   0.28765   0.00000  Uiso   1.00
H39    H     0.01790   0.76911   0.28765   0.00000  Uiso   1.00
H40    H     0.76911   0.75121   0.28765   0.00000  Uiso   1.00
H41    H     0.24879   0.01790   0.28765   0.00000  Uiso   1.00
H42    H     0.98210   0.23089   0.28765   0.00000  Uiso   1.00
C31    C     0.63409   0.64099   0.50000   0.00000  Uiso   1.00
C32    C     0.35901   0.99310   0.50000   0.00000  Uiso   1.00
C33    C     0.00690   0.36591   0.50000   0.00000  Uiso   1.00
C34    C     0.36591   0.35901   0.50000   0.00000  Uiso   1.00
C35    C     0.64099   0.00690   0.50000   0.00000  Uiso   1.00
C36    C     0.99310   0.63409   0.50000   0.00000  Uiso   1.00
C37    C     0.70771   0.64380   0.50000   0.00000  Uiso   1.00
C38    C     0.35620   0.06391   0.50000   0.00000  Uiso   1.00
C39    C     0.93609   0.29229   0.50000   0.00000  Uiso   1.00
C40    C     0.29229   0.35620   0.50000   0.00000  Uiso   1.00
C41    C     0.64380   0.93609   0.50000   0.00000  Uiso   1.00
C42    C     0.06391   0.70771   0.50000   0.00000  Uiso   1.00
C43    C     0.77096   0.72237   0.50000   0.00000  Uiso   1.00
C44    C     0.27763   0.04859   0.50000   0.00000  Uiso   1.00
C45    C     0.95141   0.22904   0.50000   0.00000  Uiso   1.00
C46    C     0.22904   0.27763   0.50000   0.00000  Uiso   1.00
C47    C     0.72237   0.95141   0.50000   0.00000  Uiso   1.00
C48    C     0.04859   0.77096   0.50000   0.00000  Uiso   1.00
H43    H     0.82222   0.72315   0.50000   0.00000  Uiso   1.00
H44    H     0.27686   0.09908   0.50000   0.00000  Uiso   1.00
H45    H     0.90092   0.17778   0.50000   0.00000  Uiso   1.00
H46    H     0.17778   0.27686   0.50000   0.00000  Uiso   1.00
H47    H     0.72315   0.90092   0.50000   0.00000  Uiso   1.00
H48    H     0.09908   0.82222   0.50000   0.00000  Uiso   1.00
loop_
_geom_bond_atom_site_label_1
_geom_bond_atom_site_label_2
_geom_bond_distance
_geom_bond_site_symmetry_2
_ccdc_geom_bond_type
C1     C7      1.413   .     S
C1     C35     1.496   .     S
C2     C8      1.413   .     S
C2     C36     1.496   .     S
C3     C9      1.413   .     S
C3     C14     1.417   .     S
C3     C34     1.496   .     S
C4     C32     1.496   .     S
C4     C10     1.413   .     S
C5     C11     1.413   .     S
C5     C33     1.496   .     S
C6     C17     1.417   .     S
C6     C12     1.413   .     S
C6     C31     1.496   .     S
C7     C18     1.407   .     S
C7     O1      1.351   .     S
C8     O2      1.351   .     S
C8     C16     1.407   .     S
C9     C17     1.407   .     S
C9     O3      1.351   .     S
C10    O4      1.351   .     S
C10    C15     1.407   .     S
C11    C13     1.407   .     S
C11    O5      1.351   .     S
C12    C14     1.407   .     S
C12    O6      1.351   .     S
O1     B1      1.439   .     S
O2     B2      1.439   .     S
O3     B3      1.439   .     S
O4     B4      1.439   .     S
O5     B5      1.439   .     S
O6     B6      1.439   .     S
C13    O7      1.351   .     S
C14    O8      1.351   .     S
C15    O9      1.351   .     S
C16    O10     1.351   .     S
C17    O11     1.351   .     S
C18    O12     1.351   .     S
O7     B5      1.439   .     S
O8     B6      1.439   .     S
O9     B4      1.439   .     S
O10    B2      1.439   .     S
O11    B3      1.439   .     S
O12    B1      1.439   .     S
C19    C30     1.412   .     S
C19    C29     1.412   .     S
C19    B1      1.490   .     S
C20    C30     1.412   .     S
C20    C28     1.412   .     S
C20    B2      1.490   .     S
C21    C29     1.412   .     S
C21    B3      1.490   .     S
C21    C28     1.412   .     S
C22    C27     1.412   .     S
C22    C26     1.412   .     S
C22    B4      1.490   .     S
C23    B5      1.490   .     S
C23    C25     1.412   .     S
C23    C27     1.412   .     S
C24    C25     1.412   .     S
C24    B6      1.490   .     S
C24    C26     1.412   .     S
C25    H3      1.028   .     S
C26    H1      1.028   .     S
C27    H2      1.028   .     S
C28    H6      1.028   .     S
C29    H4      1.028   .     S
C30    H5      1.028   .     S
H7     C31     1.093   .     S
H8     C32     1.093   .     S
H9     C33     1.093   .     S
H10    C34     1.093   .     S
H11    C35     1.093   .     S
H12    C36     1.093   .     S
H13    C34     1.093   .     S
H14    C35     1.093   .     S
H15    C36     1.093   .     S
H16    C31     1.093   .     S
H17    C32     1.093   .     S
H18    C33     1.093   .     S
H19    C37     1.097   .     S
H20    C38     1.097   .     S
H21    C39     1.097   .     S
H22    C40     1.097   .     S
H23    C41     1.097   .     S
H24    C42     1.097   .     S
H25    C40     1.097   .     S
H26    C41     1.097   .     S
H27    C42     1.097   .     S
H28    C37     1.097   .     S
H29    C38     1.097   .     S
H30    C39     1.097   .     S
H31    C43     1.091   .     S
H32    C44     1.091   .     S
H33    C45     1.091   .     S
H34    C46     1.091   .     S
H35    C47     1.091   .     S
H36    C48     1.091   .     S
H37    C46     1.091   .     S
H38    C47     1.091   .     S
H39    C48     1.091   .     S
H40    C43     1.091   .     S
H41    C44     1.091   .     S
H42    C45     1.091   .     S
C31    C37     1.553   .     S
C34    C40     1.553   .     S
C37    C43     1.550   .     S
C38    C44     1.550   .     S
C39    C45     1.550   .     S
C40    C46     1.550   .     S
C41    C47     1.550   .     S
C42    C48     1.550   .     S
C43    H43     1.093   .     S
C44    H44     1.093   .     S
C45    H45     1.093   .     S
C46    H46     1.093   .     S
C47    H47     1.093   .     S
C48    H48     1.093   .     S
