data_COF-LZU8
_audit_creation_date              2016-12-13
_audit_creation_method            'Materials Studio'
_symmetry_space_group_name_H-M    'P1'
_symmetry_Int_Tables_number       1
_symmetry_cell_setting            triclinic
loop_
_symmetry_equiv_pos_as_xyz
  x,y,z
_cell_length_a                    30.5231
_cell_length_b                    30.5231
_cell_length_c                    4.0930
_cell_angle_alpha                 90.0000
_cell_angle_beta                  90.0000
_cell_angle_gamma                 120.0000
loop_
_atom_site_label
_atom_site_type_symbol
_atom_site_fract_x
_atom_site_fract_y
_atom_site_fract_z
_atom_site_U_iso_or_equiv
_atom_site_adp_type
_atom_site_occupancy
C1     C     0.38559   0.68110   0.50000   0.00000  Uiso   1.00
C2     C     0.31890   0.70448   0.50000   0.00000  Uiso   1.00
C3     C     0.29552   0.61441   0.50000   0.00000  Uiso   1.00
C4     C     0.37047   0.71801   0.50000   0.00000  Uiso   1.00
C5     C     0.28199   0.65246   0.50000   0.00000  Uiso   1.00
C6     C     0.34754   0.62953   0.50000   0.00000  Uiso   1.00
H7     H     0.39755   0.75561   0.50000   0.00000  Uiso   1.00
H8     H     0.24439   0.64194   0.50000   0.00000  Uiso   1.00
H9     H     0.35806   0.60245   0.50000   0.00000  Uiso   1.00
C10    C     0.94775   0.98556   0.50000   0.00000  Uiso   1.00
C11    C     0.96287   0.94866   0.50000   0.00000  Uiso   1.00
C12    C     0.01444   0.96219   0.50000   0.00000  Uiso   1.00
C13    C     0.03781   0.05225   0.50000   0.00000  Uiso   1.00
C14    C     0.05134   0.01421   0.50000   0.00000  Uiso   1.00
C15    C     0.98579   0.03713   0.50000   0.00000  Uiso   1.00
H16    H     0.97527   0.06421   0.50000   0.00000  Uiso   1.00
H17    H     0.93579   0.91106   0.50000   0.00000  Uiso   1.00
H18    H     0.08894   0.02473   0.50000   0.00000  Uiso   1.00
C19    C     0.72026   0.84991   0.50000   0.00000  Uiso   1.00
C20    C     0.68253   0.79801   0.50000   0.00000  Uiso   1.00
C21    C     0.63014   0.78102   0.50000   0.00000  Uiso   1.00
C22    C     0.61307   0.81675   0.50000   0.00000  Uiso   1.00
C23    C     0.65081   0.86866   0.50000   0.00000  Uiso   1.00
C24    C     0.70319   0.88564   0.50000   0.00000  Uiso   1.00
C25    C     0.56118   0.80354   0.50000   0.00000  Uiso   1.00
C26    C     0.77215   0.86312   0.50000   0.00000  Uiso   1.00
C27    C     0.15009   0.87035   0.50000   0.00000  Uiso   1.00
C28    C     0.20199   0.88452   0.50000   0.00000  Uiso   1.00
C29    C     0.21898   0.84912   0.50000   0.00000  Uiso   1.00
C30    C     0.18325   0.79632   0.50000   0.00000  Uiso   1.00
C31    C     0.13135   0.78215   0.50000   0.00000  Uiso   1.00
C32    C     0.11436   0.81755   0.50000   0.00000  Uiso   1.00
C33    C     0.19646   0.75764   0.50000   0.00000  Uiso   1.00
C34    C     0.13688   0.90904   0.50000   0.00000  Uiso   1.00
C35    C     0.12965   0.27974   0.50000   0.00000  Uiso   1.00
C36    C     0.11548   0.31748   0.50000   0.00000  Uiso   1.00
C37    C     0.15088   0.36986   0.50000   0.00000  Uiso   1.00
C38    C     0.20368   0.38693   0.50000   0.00000  Uiso   1.00
C39    C     0.21785   0.34919   0.50000   0.00000  Uiso   1.00
C40    C     0.18245   0.29681   0.50000   0.00000  Uiso   1.00
C41    C     0.24236   0.43882   0.50000   0.00000  Uiso   1.00
C42    C     0.09096   0.22785   0.50000   0.00000  Uiso   1.00
O43    O     0.73727   0.93633   0.50000   0.00000  Uiso   1.00
O44    O     0.59606   0.73033   0.50000   0.00000  Uiso   1.00
O45    O     0.06367   0.80094   0.50000   0.00000  Uiso   1.00
O46    O     0.26967   0.86574   0.50000   0.00000  Uiso   1.00
O47    O     0.19906   0.26273   0.50000   0.00000  Uiso   1.00
O48    O     0.13426   0.40394   0.50000   0.00000  Uiso   1.00
C49    C     0.73051   0.97955   0.50000   0.00000  Uiso   1.00
C50    C     0.60282   0.68712   0.50000   0.00000  Uiso   1.00
C51    C     0.55074   0.63858   0.50000   0.00000  Uiso   1.00
C52    C     0.02046   0.75096   0.50000   0.00000  Uiso   1.00
C53    C     0.31288   0.91571   0.50000   0.00000  Uiso   1.00
C54    C     0.36142   0.91216   0.50000   0.00000  Uiso   1.00
C55    C     0.24904   0.26949   0.50000   0.00000  Uiso   1.00
C56    C     0.24549   0.21740   0.50000   0.00000  Uiso   1.00
C57    C     0.08429   0.39718   0.50000   0.00000  Uiso   1.00
C58    C     0.08784   0.44926   0.50000   0.00000  Uiso   1.00
C59    C     0.78260   0.02808   0.50000   0.00000  Uiso   1.00
C60    C     0.97192   0.75452   0.50000   0.00000  Uiso   1.00
N61    N     0.52228   0.75525   0.50000   0.00000  Uiso   1.00
N62    N     0.81106   0.91141   0.50000   0.00000  Uiso   1.00
N63    N     0.47493   0.74272   0.50000   0.00000  Uiso   1.00
N64    N     0.85841   0.92395   0.50000   0.00000  Uiso   1.00
N65    N     0.24475   0.76703   0.50000   0.00000  Uiso   1.00
N66    N     0.08859   0.89965   0.50000   0.00000  Uiso   1.00
N67    N     0.25729   0.73221   0.50000   0.00000  Uiso   1.00
N68    N     0.07605   0.93446   0.50000   0.00000  Uiso   1.00
N69    N     0.23297   0.47772   0.50000   0.00000  Uiso   1.00
N70    N     0.10035   0.18894   0.50000   0.00000  Uiso   1.00
N71    N     0.26779   0.52507   0.50000   0.00000  Uiso   1.00
N72    N     0.06554   0.14159   0.50000   0.00000  Uiso   1.00
C73    C     0.43693   0.69426   0.50000   0.00000  Uiso   1.00
C74    C     0.30574   0.74267   0.50000   0.00000  Uiso   1.00
C75    C     0.25733   0.56307   0.50000   0.00000  Uiso   1.00
C76    C     0.89641   0.97240   0.50000   0.00000  Uiso   1.00
C77    C     0.02760   0.92400   0.50000   0.00000  Uiso   1.00
C78    C     0.07600   0.10359   0.50000   0.00000  Uiso   1.00
H79    H     0.69323   0.77122   0.50000   0.00000  Uiso   1.00
H80    H     0.22878   0.92201   0.50000   0.00000  Uiso   1.00
H81    H     0.07799   0.30677   0.50000   0.00000  Uiso   1.00
H82    H     0.64010   0.89544   0.50000   0.00000  Uiso   1.00
H83    H     0.10456   0.74466   0.50000   0.00000  Uiso   1.00
H84    H     0.25534   0.35990   0.50000   0.00000  Uiso   1.00
H85    H     0.44609   0.66619   0.50000   0.00000  Uiso   1.00
H86    H     0.33381   0.77990   0.50000   0.00000  Uiso   1.00
H87    H     0.22011   0.55391   0.50000   0.00000  Uiso   1.00
H88    H     0.88724   0.00047   0.50000   0.00000  Uiso   1.00
H89    H     0.99953   0.88678   0.50000   0.00000  Uiso   1.00
H90    H     0.11323   0.11276   0.50000   0.00000  Uiso   1.00
H91    H     0.80326   0.93827   0.50000   0.00000  Uiso   1.00
H92    H     0.53008   0.72839   0.50000   0.00000  Uiso   1.00
H93    H     0.70938   0.97900   0.71586   0.00000  Uiso   1.00
H94    H     0.70938   0.97900   0.28414   0.00000  Uiso   1.00
H95    H     0.62395   0.68766   0.71586   0.00000  Uiso   1.00
H96    H     0.62395   0.68766   0.28414   0.00000  Uiso   1.00
H97    H     0.52926   0.63747   0.71518   0.00000  Uiso   1.00
H98    H     0.52926   0.63747   0.28482   0.00000  Uiso   1.00
C99    C     0.55722   0.59168   0.50000   0.00000  Uiso   1.00
S100   S     0.49130   0.54425   0.50000   0.00000  Uiso   1.00
C101   C     0.50426   0.49405   0.41948   0.00000  Uiso   1.00
C102   C     0.45558   0.44360   0.38035   0.00000  Uiso   1.00
H103   H     0.57512   0.58984   0.74020   0.00000  Uiso   1.00
H104   H     0.58277   0.59446   0.28837   0.00000  Uiso   1.00
H105   H     0.52739   0.49138   0.62913   0.00000  Uiso   1.00
H106   H     0.52706   0.50292   0.18383   0.00000  Uiso   1.00
H107   H     0.43235   0.44449   0.16521   0.00000  Uiso   1.00
H108   H     0.43240   0.43203   0.61533   0.00000  Uiso   1.00
H109   H     0.47212   0.41860   0.32778   0.00000  Uiso   1.00
H110   H     0.06173   0.86499   0.50000   0.00000  Uiso   1.00
H111   H     0.27161   0.80169   0.50000   0.00000  Uiso   1.00
H112   H     0.02100   0.73038   0.71586   0.00000  Uiso   1.00
H113   H     0.02100   0.73038   0.28414   0.00000  Uiso   1.00
H114   H     0.31234   0.93629   0.71586   0.00000  Uiso   1.00
H115   H     0.31234   0.93629   0.28414   0.00000  Uiso   1.00
H116   H     0.36253   0.89179   0.71518   0.00000  Uiso   1.00
H117   H     0.36253   0.89179   0.28482   0.00000  Uiso   1.00
C118   C     0.40832   0.96554   0.50000   0.00000  Uiso   1.00
S119   S     0.45575   0.94705   0.50000   0.00000  Uiso   1.00
C120   C     0.50596   1.01022   0.41948   0.00000  Uiso   1.00
C121   C     0.55640   1.01198   0.38035   0.00000  Uiso   1.00
H122   H     0.41016   0.98528   0.74020   0.00000  Uiso   1.00
H123   H     0.40554   0.98830   0.28837   0.00000  Uiso   1.00
H124   H     0.50862   1.03601   0.62913   0.00000  Uiso   1.00
H125   H     0.49708   1.02415   0.18383   0.00000  Uiso   1.00
H126   H     0.55551   0.98786   0.16521   0.00000  Uiso   1.00
H127   H     0.56797   1.00037   0.61533   0.00000  Uiso   1.00
H128   H     0.58140   1.05352   0.32778   0.00000  Uiso   1.00
H129   H     0.13501   0.19674   0.50000   0.00000  Uiso   1.00
H130   H     0.19832   0.46992   0.50000   0.00000  Uiso   1.00
H131   H     0.26962   0.29062   0.71586   0.00000  Uiso   1.00
H132   H     0.26962   0.29062   0.28414   0.00000  Uiso   1.00
H133   H     0.22512   0.19593   0.28482   0.00000  Uiso   1.00
H134   H     0.22512   0.19593   0.71518   0.00000  Uiso   1.00
H135   H     0.06371   0.37605   0.71586   0.00000  Uiso   1.00
H136   H     0.06371   0.37605   0.28414   0.00000  Uiso   1.00
H137   H     0.10821   0.47074   0.71518   0.00000  Uiso   1.00
H138   H     0.10821   0.47074   0.28482   0.00000  Uiso   1.00
C139   C     0.29887   0.22389   0.50000   0.00000  Uiso   1.00
S140   S     0.28038   0.15796   0.50000   0.00000  Uiso   1.00
C141   C     0.34354   0.17093   0.41948   0.00000  Uiso   1.00
C142   C     0.34531   0.12225   0.38035   0.00000  Uiso   1.00
H143   H     0.31861   0.24179   0.74020   0.00000  Uiso   1.00
H144   H     0.32163   0.24943   0.28837   0.00000  Uiso   1.00
H145   H     0.36934   0.19406   0.62913   0.00000  Uiso   1.00
H146   H     0.35747   0.19373   0.18383   0.00000  Uiso   1.00
H147   H     0.32119   0.09901   0.16521   0.00000  Uiso   1.00
H148   H     0.33370   0.09907   0.61533   0.00000  Uiso   1.00
H149   H     0.38685   0.13879   0.32778   0.00000  Uiso   1.00
C150   C     0.03446   0.44278   0.50000   0.00000  Uiso   1.00
S151   S     0.05295   0.50870   0.50000   0.00000  Uiso   1.00
C152   C    -0.01021   0.49574   0.41948   0.00000  Uiso   1.00
C153   C    -0.01198   0.54442   0.38035   0.00000  Uiso   1.00
H154   H     0.01472   0.42488   0.74020   0.00000  Uiso   1.00
H155   H     0.01170   0.41724   0.28837   0.00000  Uiso   1.00
H156   H    -0.03601   0.47261   0.62913   0.00000  Uiso   1.00
H157   H    -0.02415   0.47294   0.18383   0.00000  Uiso   1.00
H158   H     0.01214   0.56766   0.16521   0.00000  Uiso   1.00
H159   H    -0.00037   0.56760   0.61533   0.00000  Uiso   1.00
H160   H    -0.05352   0.52788   0.32778   0.00000  Uiso   1.00
H161   H     0.80407   0.02919   0.28482   0.00000  Uiso   1.00
H162   H     0.80407   0.02919   0.71518   0.00000  Uiso   1.00
C163   C     0.77611   0.07498   0.50000   0.00000  Uiso   1.00
S164   S     0.84204   0.12241   0.50000   0.00000  Uiso   1.00
C165   C     0.82907   0.17262   0.41948   0.00000  Uiso   1.00
C166   C     0.87775   0.22306   0.38035   0.00000  Uiso   1.00
H167   H     0.75821   0.07682   0.74020   0.00000  Uiso   1.00
H168   H     0.75057   0.07220   0.28837   0.00000  Uiso   1.00
H169   H     0.80594   0.17528   0.62913   0.00000  Uiso   1.00
H170   H     0.80627   0.16374   0.18383   0.00000  Uiso   1.00
H171   H     0.90099   0.22218   0.16521   0.00000  Uiso   1.00
H172   H     0.90093   0.23463   0.61533   0.00000  Uiso   1.00
H173   H     0.86121   0.24806   0.32778   0.00000  Uiso   1.00
H174   H     0.97081   0.77488   0.28482   0.00000  Uiso   1.00
H175   H     0.97081   0.77488   0.71518   0.00000  Uiso   1.00
C176   C     0.92502   0.70113   0.50000   0.00000  Uiso   1.00
S177   S     0.87759   0.71962   0.50000   0.00000  Uiso   1.00
C178   C     0.82738   0.65646   0.41948   0.00000  Uiso   1.00
C179   C     0.77694   0.65469   0.38035   0.00000  Uiso   1.00
H180   H     0.92318   0.68139   0.74020   0.00000  Uiso   1.00
H181   H     0.92780   0.67837   0.28837   0.00000  Uiso   1.00
H182   H     0.82472   0.63066   0.62913   0.00000  Uiso   1.00
H183   H     0.83626   0.64253   0.18383   0.00000  Uiso   1.00
H184   H     0.77783   0.67881   0.16521   0.00000  Uiso   1.00
H185   H     0.76537   0.66630   0.61533   0.00000  Uiso   1.00
H186   H     0.75194   0.61315   0.32778   0.00000  Uiso   1.00
O187   O     0.78401   0.82917   0.50000   0.00000  Uiso   1.00
O188   O     0.54932   0.83750   0.50000   0.00000  Uiso   1.00
O189   O     0.17084   0.95485   0.50000   0.00000  Uiso   1.00
O190   O     0.16250   0.71183   0.50000   0.00000  Uiso   1.00
O191   O     0.04515   0.21599   0.50000   0.00000  Uiso   1.00
O192   O     0.28817   0.45068   0.50000   0.00000  Uiso   1.00
loop_
_geom_bond_atom_site_label_1
_geom_bond_atom_site_label_2
_geom_bond_distance
_geom_bond_site_symmetry_2
_ccdc_geom_bond_type
C1     C4      1.415   .     S
C1     C73     1.410   .     S
C1     C6      1.414   .     S
C2     C5      1.415   .     S
C2     C4      1.414   .     S
C2     C74     1.410   .     S
C3     C75     1.410   .     S
C3     C6      1.415   .     S
C3     C5      1.414   .     S
C4     H7      1.026   .     S
C5     H8      1.026   .     S
C6     H9      1.026   .     S
C10    C76     1.410   .     S
C10    C11     1.415   .     S
C11    H17     1.026   .     S
C12    C77     1.410   .     S
C13    C14     1.414   .     S
C13    C78     1.410   .     S
C14    H18     1.026   .     S
C15    H16     1.026   .     S
C19    C24     1.424   .     S
C19    C26     1.426   .     S
C19    C20     1.418   .     S
C20    C21     1.413   .     S
C20    H79     1.021   .     S
C21    O44     1.366   .     S
C21    C22     1.424   .     S
C22    C23     1.418   .     S
C22    C25     1.426   .     S
C23    H82     1.021   .     S
C23    C24     1.413   .     S
C24    O43     1.366   .     S
C25    N61     1.354   .     S
C25    O188    1.257   .     S
C26    O187    1.257   .     S
C26    N62     1.354   .     S
C27    C28     1.418   .     S
C27    C32     1.424   .     S
C27    C34     1.426   .     S
C28    C29     1.413   .     S
C28    H80     1.021   .     S
C29    O46     1.366   .     S
C29    C30     1.424   .     S
C30    C33     1.426   .     S
C30    C31     1.418   .     S
C31    H83     1.021   .     S
C31    C32     1.413   .     S
C32    O45     1.366   .     S
C33    N65     1.354   .     S
C33    O190    1.257   .     S
C34    O189    1.257   .     S
C34    N66     1.354   .     S
C35    C36     1.418   .     S
C35    C40     1.424   .     S
C35    C42     1.426   .     S
C36    H81     1.021   .     S
C36    C37     1.413   .     S
C37    O48     1.366   .     S
C37    C38     1.424   .     S
C38    C41     1.426   .     S
C38    C39     1.418   .     S
C39    C40     1.413   .     S
C39    H84     1.021   .     S
C40    O47     1.366   .     S
C41    O192    1.257   .     S
C41    N69     1.354   .     S
C42    O191    1.257   .     S
C42    N70     1.354   .     S
O43    C49     1.433   .     S
O44    C50     1.433   .     S
O45    C52     1.433   .     S
O46    C53     1.433   .     S
O47    C55     1.433   .     S
O48    C57     1.433   .     S
C49    H94     1.089   .     S
C49    H93     1.089   .     S
C50    H96     1.089   .     S
C50    C51     1.539   .     S
C50    H95     1.089   .     S
C51    H98     1.088   .     S
C51    C99     1.540   .     S
C51    H97     1.088   .     S
C52    H113    1.089   .     S
C52    H112    1.089   .     S
C53    C54     1.539   .     S
C53    H115    1.089   .     S
C53    H114    1.089   .     S
C54    C118    1.540   .     S
C54    H117    1.088   .     S
C54    H116    1.088   .     S
C55    C56     1.539   .     S
C55    H132    1.089   .     S
C55    H131    1.089   .     S
C56    H133    1.088   .     S
C56    C139    1.540   .     S
C56    H134    1.088   .     S
C57    C58     1.539   .     S
C57    H136    1.089   .     S
C57    H135    1.089   .     S
C58    C150    1.540   .     S
C58    H138    1.088   .     S
C58    H137    1.088   .     S
C59    C163    1.540   .     S
C59    H161    1.088   .     S
C59    H162    1.088   .     S
C60    H174    1.088   .     S
C60    C176    1.540   .     S
C60    H175    1.088   .     S
N61    N63     1.297   .     S
N61    H92     0.961   .     S
N62    H91     0.961   .     S
N62    N64     1.297   .     S
N63    C73     1.348   .     S
N64    C76     1.348   .     S
N65    N67     1.297   .     S
N65    H111    0.961   .     S
N66    H110    0.961   .     S
N66    N68     1.297   .     S
N67    C74     1.348   .     S
N68    C77     1.348   .     S
N69    H130    0.961   .     S
N69    N71     1.297   .     S
N70    H129    0.961   .     S
N70    N72     1.297   .     S
N71    C75     1.348   .     S
N72    C78     1.348   .     S
C73    H85     1.025   .     S
C74    H86     1.025   .     S
C75    H87     1.025   .     S
C78    H90     1.025   .     S
C99    H104    1.140   .     S
C99    S100    1.798   .     S
C99    H103    1.140   .     S
S100   C101    1.794   .     S
C101   H106    1.140   .     S
C101   C102    1.522   .     S
C101   H105    1.140   .     S
C102   H107    1.139   .     S
C102   H109    1.126   .     S
C102   H108    1.140   .     S
C118   S119    1.798   .     S
C118   H123    1.140   .     S
C118   H122    1.140   .     S
S119   C120    1.794   .     S
C120   C121    1.522   .     S
C120   H125    1.140   .     S
C120   H124    1.140   .     S
C121   H128    1.126   .     S
C121   H126    1.139   .     S
C121   H127    1.140   .     S
C139   H144    1.140   .     S
C139   S140    1.798   .     S
C139   H143    1.140   .     S
S140   C141    1.794   .     S
C141   C142    1.522   .     S
C141   H146    1.140   .     S
C141   H145    1.140   .     S
C142   H147    1.139   .     S
C142   H149    1.126   .     S
C142   H148    1.140   .     S
C150   H155    1.140   .     S
C150   S151    1.798   .     S
C150   H154    1.140   .     S
S151   C152    1.794   .     S
C152   H157    1.140   .     S
C152   C153    1.522   .     S
C152   H156    1.140   .     S
C153   H158    1.139   .     S
C153   H160    1.126   .     S
C153   H159    1.140   .     S
C163   H168    1.140   .     S
C163   S164    1.798   .     S
C163   H167    1.140   .     S
S164   C165    1.794   .     S
C165   H170    1.140   .     S
C165   C166    1.522   .     S
C165   H169    1.140   .     S
C166   H173    1.126   .     S
C166   H171    1.139   .     S
C166   H172    1.140   .     S
C176   H181    1.140   .     S
C176   S177    1.798   .     S
C176   H180    1.140   .     S
S177   C178    1.794   .     S
C178   H183    1.140   .     S
C178   C179    1.522   .     S
C178   H182    1.140   .     S
C179   H184    1.139   .     S
C179   H186    1.126   .     S
C179   H185    1.140   .     S
