data_CoPc-PorDBA
_audit_creation_date              2016-12-13
_audit_creation_method            'Materials Studio'
_symmetry_space_group_name_H-M    'P1'
_symmetry_Int_Tables_number       1
_symmetry_cell_setting            triclinic
loop_
_symmetry_equiv_pos_as_xyz
  x,y,z
_cell_length_a                    35.7402
_cell_length_b                    6.7121
_cell_length_c                    35.8135
_cell_angle_alpha                 90.0000
_cell_angle_beta                  90.0004
_cell_angle_gamma                 90.0000
loop_
_atom_site_label
_atom_site_type_symbol
_atom_site_fract_x
_atom_site_fract_y
_atom_site_fract_z
_atom_site_U_iso_or_equiv
_atom_site_adp_type
_atom_site_occupancy
C1     C     0.68259   0.50000   0.48055   0.00000  Uiso   1.00
C2     C     0.64900   0.50000   0.54029   0.00000  Uiso   1.00
C3     C     0.61534   0.50000   0.51963   0.00000  Uiso   1.00
C4     C     0.57804   0.50000   0.53081   0.00000  Uiso   1.00
C5     C     0.31741   0.50000   0.51945   0.00000  Uiso   1.00
C6     C     0.35100   0.50000   0.45971   0.00000  Uiso   1.00
C7     C     0.38466   0.50000   0.48037   0.00000  Uiso   1.00
C8     C     0.42196   0.50000   0.46919   0.00000  Uiso   1.00
O9     O     0.71777   0.50000   0.53324   0.00000  Uiso   1.00
O10    O     0.28223   0.50000   0.46676   0.00000  Uiso   1.00
H11    H     0.64938   0.50000   0.56879   0.00000  Uiso   1.00
H12    H     0.35062   0.50000   0.43121   0.00000  Uiso   1.00
C13    C     0.48051   0.50000   0.31677   0.00000  Uiso   1.00
C14    C     0.54041   0.50000   0.35026   0.00000  Uiso   1.00
C15    C     0.51973   0.50000   0.38385   0.00000  Uiso   1.00
C16    C     0.53108   0.50000   0.42106   0.00000  Uiso   1.00
C17    C     0.51949   0.50000   0.68323   0.00000  Uiso   1.00
C18    C     0.45959   0.50000   0.64974   0.00000  Uiso   1.00
C19    C     0.48028   0.50000   0.61615   0.00000  Uiso   1.00
C20    C     0.46892   0.50000   0.57894   0.00000  Uiso   1.00
O21    O     0.53331   0.50000   0.28166   0.00000  Uiso   1.00
O22    O     0.46669   0.50000   0.71834   0.00000  Uiso   1.00
H23    H     0.56896   0.50000   0.34988   0.00000  Uiso   1.00
H24    H     0.43104   0.50000   0.65012   0.00000  Uiso   1.00
N25    N     0.56645   0.50000   0.56663   0.00000  Uiso   1.00
N26    N     0.43355   0.50000   0.43337   0.00000  Uiso   1.00
C27    C     0.68256   0.50000   0.51980   0.00000  Uiso   1.00
C28    C     0.64907   0.50000   0.46000   0.00000  Uiso   1.00
C29    C     0.61538   0.50000   0.48061   0.00000  Uiso   1.00
C30    C     0.57810   0.50000   0.46935   0.00000  Uiso   1.00
C31    C     0.31744   0.50000   0.48020   0.00000  Uiso   1.00
C32    C     0.35093   0.50000   0.54000   0.00000  Uiso   1.00
C33    C     0.38462   0.50000   0.51939   0.00000  Uiso   1.00
C34    C     0.42190   0.50000   0.53065   0.00000  Uiso   1.00
O35    O     0.71783   0.50000   0.46716   0.00000  Uiso   1.00
O36    O     0.28217   0.50000   0.53284   0.00000  Uiso   1.00
H37    H     0.64950   0.50000   0.43151   0.00000  Uiso   1.00
H38    H     0.35050   0.50000   0.56849   0.00000  Uiso   1.00
C39    C     0.48016   0.50000   0.68320   0.00000  Uiso   1.00
C40    C     0.54011   0.50000   0.64981   0.00000  Uiso   1.00
C41    C     0.51949   0.50000   0.61619   0.00000  Uiso   1.00
C42    C     0.53091   0.50000   0.57900   0.00000  Uiso   1.00
C43    C     0.51984   0.50000   0.31680   0.00000  Uiso   1.00
C44    C     0.45989   0.50000   0.35019   0.00000  Uiso   1.00
C45    C     0.48051   0.50000   0.38381   0.00000  Uiso   1.00
C46    C     0.46909   0.50000   0.42100   0.00000  Uiso   1.00
O47    O     0.53290   0.50000   0.71840   0.00000  Uiso   1.00
O48    O     0.46710   0.50000   0.28160   0.00000  Uiso   1.00
H49    H     0.56866   0.50000   0.65024   0.00000  Uiso   1.00
H50    H     0.43134   0.50000   0.34976   0.00000  Uiso   1.00
N51    N     0.56659   0.50000   0.43351   0.00000  Uiso   1.00
N52    N     0.43341   0.50000   0.56649   0.00000  Uiso   1.00
B53    B     0.74088   0.50000   0.50022   0.00000  Uiso   1.00
B54    B     0.25912   0.50000   0.49978   0.00000  Uiso   1.00
N55    N     0.55627   0.50000   0.50006   0.00000  Uiso   1.00
N56    N     0.44373   0.50000   0.49994   0.00000  Uiso   1.00
B57    B     0.50023   0.50000   0.25859   0.00000  Uiso   1.00
B58    B     0.49978   0.50000   0.74141   0.00000  Uiso   1.00
N59    N     0.50006   0.50000   0.44203   0.00000  Uiso   1.00
N60    N     0.49994   0.50000   0.55797   0.00000  Uiso   1.00
H61    H     0.49996   0.50000   0.53105   0.00000  Uiso   1.00
H62    H     0.50004   0.50000   0.46895   0.00000  Uiso   1.00
N63    N     0.54119   0.50000   0.95710   0.00000  Uiso   1.00
N64    N     0.45882   0.50000   0.04290   0.00000  Uiso   1.00
H65    H     0.52158   0.50000   0.97582   0.00000  Uiso   1.00
H66    H     0.47842   0.50000   0.02418   0.00000  Uiso   1.00
C67    C     0.57793   0.50000   0.96502   0.00000  Uiso   1.00
C68    C     0.42207   0.50000   0.03498   0.00000  Uiso   1.00
C69    C     0.59687   0.50000   0.93115   0.00000  Uiso   1.00
C70    C     0.40313   0.50000   0.06885   0.00000  Uiso   1.00
C71    C     0.53487   0.50000   0.91999   0.00000  Uiso   1.00
C72    C     0.46513   0.50000   0.08001   0.00000  Uiso   1.00
C73    C     0.57017   0.50000   0.90319   0.00000  Uiso   1.00
C74    C     0.42983   0.50000   0.09681   0.00000  Uiso   1.00
H75    H     0.62521   0.50000   0.92740   0.00000  Uiso   1.00
H76    H     0.37479   0.50000   0.07260   0.00000  Uiso   1.00
H77    H     0.57569   0.50000   0.87519   0.00000  Uiso   1.00
H78    H     0.42431   0.50000   0.12481   0.00000  Uiso   1.00
N79    N     0.54040   0.50000   0.04210   0.00000  Uiso   1.00
N80    N     0.45960   0.50000   0.95790   0.00000  Uiso   1.00
C81    C     0.57744   0.50000   0.03470   0.00000  Uiso   1.00
C82    C     0.42256   0.50000   0.96530   0.00000  Uiso   1.00
C83    C     0.59661   0.50000   0.06844   0.00000  Uiso   1.00
C84    C     0.40339   0.50000   0.93156   0.00000  Uiso   1.00
C85    C     0.46522   0.50000   0.92050   0.00000  Uiso   1.00
C86    C     0.53478   0.50000   0.07950   0.00000  Uiso   1.00
C87    C     0.42996   0.50000   0.90361   0.00000  Uiso   1.00
C88    C     0.57004   0.50000   0.09639   0.00000  Uiso   1.00
H89    H     0.62497   0.50000   0.07211   0.00000  Uiso   1.00
H90    H     0.37503   0.50000   0.92789   0.00000  Uiso   1.00
C91    C     0.59544   0.50000   0.99996   0.00000  Uiso   1.00
C92    C     0.40456   0.50000   0.00004   0.00000  Uiso   1.00
H93    H     0.42439   0.50000   0.87562   0.00000  Uiso   1.00
H94    H     0.57561   0.50000   0.12438   0.00000  Uiso   1.00
C95    C     0.49993   0.50000   0.90149   0.00000  Uiso   1.00
C96    C     0.50007   0.50000   0.09851   0.00000  Uiso   1.00
C97    C     0.49983   0.50000   0.86209   0.00000  Uiso   1.00
C98    C     0.50017   0.50000   0.13791   0.00000  Uiso   1.00
C99    C     0.49979   0.31850   0.84217   0.00000  Uiso   1.00
C100   C     0.50021   0.31850   0.15783   0.00000  Uiso   1.00
C101   C     0.50021   0.68151   0.15783   0.00000  Uiso   1.00
C102   C     0.49979   0.68151   0.84217   0.00000  Uiso   1.00
C103   C     0.90129   0.50000   0.50007   0.00000  Uiso   1.00
C104   C     0.09871   0.50000   0.49993   0.00000  Uiso   1.00
C105   C     0.86181   0.50000   0.50017   0.00000  Uiso   1.00
C106   C     0.13819   0.50000   0.49983   0.00000  Uiso   1.00
C107   C     0.84185   0.31850   0.50020   0.00000  Uiso   1.00
C108   C     0.15815   0.31850   0.49980   0.00000  Uiso   1.00
C109   C     0.15815   0.68151   0.49980   0.00000  Uiso   1.00
C110   C     0.84185   0.68151   0.50020   0.00000  Uiso   1.00
H111   H     0.49979   0.18576   0.85621   0.00000  Uiso   1.00
H112   H     0.50021   0.18576   0.14379   0.00000  Uiso   1.00
H113   H     0.50021   0.81425   0.14379   0.00000  Uiso   1.00
H114   H     0.49979   0.81425   0.85621   0.00000  Uiso   1.00
C115   C     0.49976   0.31852   0.80287   0.00000  Uiso   1.00
C116   C     0.50024   0.31852   0.19713   0.00000  Uiso   1.00
C117   C     0.50024   0.68148   0.19713   0.00000  Uiso   1.00
C118   C     0.49976   0.68148   0.80287   0.00000  Uiso   1.00
H119   H     0.49974   0.18582   0.78882   0.00000  Uiso   1.00
H120   H     0.50026   0.18582   0.21118   0.00000  Uiso   1.00
H121   H     0.50026   0.81418   0.21118   0.00000  Uiso   1.00
H122   H     0.49974   0.81418   0.78882   0.00000  Uiso   1.00
C123   C     0.49976   0.50000   0.78295   0.00000  Uiso   1.00
C124   C     0.50024   0.50000   0.21705   0.00000  Uiso   1.00
H125   H     0.62406   0.50000   0.00009   0.00000  Uiso   1.00
H126   H     0.37594   0.50000   0.99991   0.00000  Uiso   1.00
N127   N     0.95702   0.50000   0.45890   0.00000  Uiso   1.00
N128   N     0.04298   0.50000   0.54110   0.00000  Uiso   1.00
H129   H     0.97577   0.50000   0.47846   0.00000  Uiso   1.00
H130   H     0.02423   0.50000   0.52154   0.00000  Uiso   1.00
C131   C     0.96495   0.50000   0.42223   0.00000  Uiso   1.00
C132   C     0.03505   0.50000   0.57777   0.00000  Uiso   1.00
C133   C     0.93101   0.50000   0.40332   0.00000  Uiso   1.00
C134   C     0.06899   0.50000   0.59668   0.00000  Uiso   1.00
C135   C     0.91983   0.50000   0.46520   0.00000  Uiso   1.00
C136   C     0.08017   0.50000   0.53480   0.00000  Uiso   1.00
C137   C     0.90299   0.50000   0.42997   0.00000  Uiso   1.00
C138   C     0.09701   0.50000   0.57003   0.00000  Uiso   1.00
H139   H     0.92725   0.50000   0.37504   0.00000  Uiso   1.00
H140   H     0.07275   0.50000   0.62496   0.00000  Uiso   1.00
H141   H     0.87494   0.50000   0.42446   0.00000  Uiso   1.00
H142   H     0.12506   0.50000   0.57554   0.00000  Uiso   1.00
N143   N     0.04219   0.50000   0.45969   0.00000  Uiso   1.00
N144   N     0.95782   0.50000   0.54031   0.00000  Uiso   1.00
C145   C     0.03477   0.50000   0.42272   0.00000  Uiso   1.00
C146   C     0.96523   0.50000   0.57728   0.00000  Uiso   1.00
C147   C     0.06859   0.50000   0.40359   0.00000  Uiso   1.00
C148   C     0.93142   0.50000   0.59641   0.00000  Uiso   1.00
C149   C     0.92034   0.50000   0.53470   0.00000  Uiso   1.00
C150   C     0.07966   0.50000   0.46530   0.00000  Uiso   1.00
C151   C     0.90341   0.50000   0.56989   0.00000  Uiso   1.00
C152   C     0.09659   0.50000   0.43011   0.00000  Uiso   1.00
H153   H     0.07225   0.50000   0.37528   0.00000  Uiso   1.00
H154   H     0.92775   0.50000   0.62472   0.00000  Uiso   1.00
C155   C     0.99996   0.50000   0.40476   0.00000  Uiso   1.00
C156   C     0.00004   0.50000   0.59524   0.00000  Uiso   1.00
H157   H     0.87536   0.50000   0.57545   0.00000  Uiso   1.00
H158   H     0.12464   0.50000   0.42455   0.00000  Uiso   1.00
H159   H     0.85592   0.18576   0.50021   0.00000  Uiso   1.00
H160   H     0.14408   0.18576   0.49979   0.00000  Uiso   1.00
H161   H     0.14408   0.81424   0.49979   0.00000  Uiso   1.00
H162   H     0.85592   0.81424   0.50021   0.00000  Uiso   1.00
C163   C     0.80247   0.31852   0.50023   0.00000  Uiso   1.00
C164   C     0.19753   0.31852   0.49977   0.00000  Uiso   1.00
C165   C     0.19753   0.68148   0.49977   0.00000  Uiso   1.00
C166   C     0.80247   0.68148   0.50023   0.00000  Uiso   1.00
H167   H     0.78839   0.18582   0.50026   0.00000  Uiso   1.00
H168   H     0.21161   0.18582   0.49974   0.00000  Uiso   1.00
H169   H     0.21161   0.81418   0.49974   0.00000  Uiso   1.00
H170   H     0.78839   0.81418   0.50026   0.00000  Uiso   1.00
C171   C     0.78251   0.50000   0.50024   0.00000  Uiso   1.00
C172   C     0.21750   0.50000   0.49976   0.00000  Uiso   1.00
H173   H     0.00009   0.50000   0.37619   0.00000  Uiso   1.00
H174   H     0.99991   0.50000   0.62381   0.00000  Uiso   1.00
loop_
_geom_bond_atom_site_label_1
_geom_bond_atom_site_label_2
_geom_bond_distance
_geom_bond_site_symmetry_2
_ccdc_geom_bond_type
C1     C28     1.406   .     S
C1     O35     1.348   .     S
C1     C27     1.405   .     S
C2     C27     1.406   .     S
C2     C3      1.412   .     S
C2     H11     1.021   .     S
C3     C4      1.392   .     S
C3     C29     1.397   .     S
C4     N55     1.348   .     S
C4     N25     1.348   .     S
C5     O36     1.348   .     S
C5     C32     1.406   .     S
C5     C31     1.405   .     S
C6     C7      1.412   .     S
C6     C31     1.406   .     S
C6     H12     1.021   .     S
C7     C8      1.392   .     S
C7     C33     1.397   .     S
C8     N26     1.348   .     S
C8     N56     1.348   .     S
O9     B53     1.442   .     S
O9     C27     1.348   .     S
O10    C31     1.348   .     S
O10    B54     1.442   .     S
C13    C43     1.406   .     S
C13    O48     1.348   .     S
C13    C44     1.406   .     S
C14    C15     1.412   .     S
C14    H23     1.020   .     S
C14    C43     1.406   .     S
C15    C45     1.401   .     S
C15    C16     1.393   .     S
C16    N59     1.339   .     S
C16    N51     1.345   .     S
C17    C40     1.406   .     S
C17    C39     1.406   .     S
C17    O47     1.348   .     S
C18    C39     1.406   .     S
C18    H24     1.020   .     S
C18    C19     1.412   .     S
C19    C41     1.401   .     S
C19    C20     1.393   .     S
C20    N52     1.345   .     S
C20    N60     1.339   .     S
O21    B57     1.442   .     S
O21    C43     1.348   .     S
O22    B58     1.442   .     S
O22    C39     1.348   .     S
N25    C42     1.345   .     S
N26    C46     1.345   .     S
C28    C29     1.412   .     S
C28    H37     1.021   .     S
C29    C30     1.392   .     S
C30    N51     1.348   .     S
C30    N55     1.348   .     S
C32    C33     1.412   .     S
C32    H38     1.021   .     S
C33    C34     1.392   .     S
C34    N56     1.348   .     S
C34    N52     1.348   .     S
O35    B53     1.442   .     S
O36    B54     1.442   .     S
C40    H49     1.020   .     S
C40    C41     1.412   .     S
C41    C42     1.393   .     S
C42    N60     1.339   .     S
C44    C45     1.412   .     S
C44    H50     1.020   .     S
C45    C46     1.393   .     S
C46    N59     1.339   .     S
O47    B58     1.442   .     S
O48    B57     1.442   .     S
B53    C171    1.488   .     S
B54    C172    1.488   .     S
B57    C124    1.488   .     S
B58    C123    1.488   .     S
N59    H62     0.964   .     S
N60    H61     0.964   .     S
N63    H65     0.969   .     S
N63    C67     1.344   .     S
N63    C71     1.348   .     S
N64    H66     0.969   .     S
N64    C68     1.344   .     S
N64    C72     1.348   .     S
C67    C69     1.389   .     S
C67    C91     1.399   .     S
C68    C92     1.399   .     S
C68    C70     1.389   .     S
C69    H75     1.022   .     S
C69    C73     1.383   .     S
C70    C74     1.383   .     S
C70    H76     1.022   .     S
C71    C95     1.414   .     S
C71    C73     1.398   .     S
C72    C74     1.398   .     S
C72    C96     1.414   .     S
C73    H77     1.022   .     S
C74    H78     1.022   .     S
N79    C81     1.350   .     S
N79    C86     1.354   .     S
N80    C82     1.350   .     S
N80    C85     1.354   .     S
C81    C83     1.389   .     S
C82    C84     1.389   .     S
C83    H89     1.022   .     S
C83    C88     1.380   .     S
C84    C87     1.380   .     S
C84    H90     1.022   .     S
C85    C87     1.398   .     S
C85    C95     1.415   .     S
C86    C96     1.415   .     S
C86    C88     1.398   .     S
C87    H93     1.022   .     S
C88    H94     1.022   .     S
C95    C97     1.411   .     S
C96    C98     1.411   .     S
C97    C99     1.412   .     S
C97    C102    1.412   .     S
C98    C101    1.412   .     S
C98    C100    1.412   .     S
C99    H111    1.023   .     S
C99    C115    1.408   .     S
C100   C116    1.408   .     S
C100   H112    1.023   .     S
C101   C117    1.408   .     S
C101   H113    1.023   .     S
C102   H114    1.023   .     S
C102   C118    1.408   .     S
C103   C149    1.415   .     S
C103   C105    1.411   .     S
C103   C135    1.414   .     S
C104   C136    1.414   .     S
C104   C106    1.411   .     S
C104   C150    1.415   .     S
C105   C107    1.412   .     S
C105   C110    1.412   .     S
C106   C108    1.412   .     S
C106   C109    1.412   .     S
C107   C163    1.408   .     S
C107   H159    1.023   .     S
C108   C164    1.408   .     S
C108   H160    1.023   .     S
C109   C165    1.408   .     S
C109   H161    1.023   .     S
C110   C166    1.408   .     S
C110   H162    1.023   .     S
C115   C123    1.412   .     S
C115   H119    1.023   .     S
C116   C124    1.412   .     S
C116   H120    1.023   .     S
C117   H121    1.023   .     S
C117   C124    1.412   .     S
C118   H122    1.023   .     S
C118   C123    1.412   .     S
N127   H129    0.969   .     S
N127   C135    1.348   .     S
N127   C131    1.344   .     S
N128   H130    0.969   .     S
N128   C136    1.348   .     S
N128   C132    1.344   .     S
C131   C133    1.389   .     S
C131   C155    1.399   .     S
C132   C156    1.399   .     S
C132   C134    1.389   .     S
C133   C137    1.383   .     S
C133   H139    1.022   .     S
C134   H140    1.022   .     S
C134   C138    1.383   .     S
C135   C137    1.398   .     S
C136   C138    1.398   .     S
C137   H141    1.022   .     S
C138   H142    1.022   .     S
N143   C150    1.354   .     S
N143   C145    1.350   .     S
N144   C149    1.354   .     S
N144   C146    1.350   .     S
C145   C147    1.389   .     S
C146   C148    1.389   .     S
C147   C152    1.380   .     S
C147   H153    1.022   .     S
C148   H154    1.022   .     S
C148   C151    1.380   .     S
C149   C151    1.398   .     S
C150   C152    1.398   .     S
C151   H157    1.022   .     S
C152   H158    1.022   .     S
C163   C171    1.412   .     S
C163   H167    1.023   .     S
C164   C172    1.412   .     S
C164   H168    1.023   .     S
C165   H169    1.023   .     S
C165   C172    1.412   .     S
C166   H170    1.023   .     S
C166   C171    1.412   .     S
