data_CS-COF
_audit_creation_date              2016-12-13
_audit_creation_method            'Materials Studio'
_symmetry_space_group_name_H-M    'P1'
_symmetry_Int_Tables_number       1
_symmetry_cell_setting            triclinic
loop_
_symmetry_equiv_pos_as_xyz
  x,y,z
_cell_length_a                    32.3400
_cell_length_b                    32.3400
_cell_length_c                    3.4000
_cell_angle_alpha                 90.0000
_cell_angle_beta                  90.0000
_cell_angle_gamma                 120.0000
loop_
_atom_site_label
_atom_site_type_symbol
_atom_site_fract_x
_atom_site_fract_y
_atom_site_fract_z
_atom_site_U_iso_or_equiv
_atom_site_adp_type
_atom_site_occupancy
C1     C     0.54762   0.54762   1.47059   0.00000  Uiso   1.00
C2     C     0.54762   0.50000   1.47059   0.00000  Uiso   1.00
C3     C     0.50000   0.45238   1.47059   0.00000  Uiso   1.00
C4     C     0.45238   0.45238   1.47059   0.00000  Uiso   1.00
C5     C     0.45238   0.50000   1.47059   0.00000  Uiso   1.00
C6     C     0.50000   0.54762   1.47059   0.00000  Uiso   1.00
C7     C     0.40476   0.40476   1.47059   0.00000  Uiso   1.00
C8     C     0.40476   0.35714   1.47059   0.00000  Uiso   1.00
C9     C     0.45238   0.35714   1.47059   0.00000  Uiso   1.00
C10    C     0.50000   0.40476   1.47059   0.00000  Uiso   1.00
C11    C     0.59524   0.59524   1.47059   0.00000  Uiso   1.00
C12    C     0.64286   0.59524   1.47059   0.00000  Uiso   1.00
C13    C     0.64286   0.54762   1.47059   0.00000  Uiso   1.00
C14    C     0.59524   0.50000   1.47059   0.00000  Uiso   1.00
C15    C     0.50000   0.59524   1.47059   0.00000  Uiso   1.00
C16    C     0.45238   0.59524   1.47059   0.00000  Uiso   1.00
C17    C     0.40476   0.54762   1.47059   0.00000  Uiso   1.00
C18    C     0.40476   0.50000   1.47059   0.00000  Uiso   1.00
N1     N     0.45238   0.30952   1.47059   0.00000  Uiso   1.00
C19    C     0.40476   0.26190   1.47059   0.00000  Uiso   1.00
C20    C     0.35714   0.26190   1.47059   0.00000  Uiso   1.00
N2     N     0.35714   0.30952   1.47059   0.00000  Uiso   1.00
N3     N     0.69048   0.54762   1.47059   0.00000  Uiso   1.00
C21    C     0.73810   0.59524   1.47059   0.00000  Uiso   1.00
C22    C     0.73810   0.64286   1.47059   0.00000  Uiso   1.00
N4     N     0.69048   0.64286   1.47059   0.00000  Uiso   1.00
N5     N     0.35714   0.54762   1.47059   0.00000  Uiso   1.00
C23    C     0.35714   0.59524   1.47059   0.00000  Uiso   1.00
C24    C     0.40476   0.64286   1.47059   0.00000  Uiso   1.00
N6     N     0.45238   0.64286   1.47059   0.00000  Uiso   1.00
H1     H     0.36951   0.40476   1.47059   0.00000  Uiso   1.00
H2     H     0.53525   0.40476   1.47059   0.00000  Uiso   1.00
H3     H     0.59524   0.63049   1.47059   0.00000  Uiso   1.00
H4     H     0.59524   0.46475   1.47059   0.00000  Uiso   1.00
H5     H     0.53525   0.63049   1.47059   0.00000  Uiso   1.00
H6     H     0.36951   0.46475   1.47059   0.00000  Uiso   1.00
C25    C     0.11905   0.78571   1.47059   0.00000  Uiso   1.00
C26    C     0.11905   0.83333   1.47059   0.00000  Uiso   1.00
C27    C     0.16667   0.88095   1.47059   0.00000  Uiso   1.00
C28    C     0.21429   0.88095   1.47059   0.00000  Uiso   1.00
C29    C     0.21429   0.83333   1.47059   0.00000  Uiso   1.00
C30    C     0.16667   0.78571   1.47059   0.00000  Uiso   1.00
C31    C     0.26190   0.92857   1.47059   0.00000  Uiso   1.00
C32    C     0.26190   0.97619   1.47059   0.00000  Uiso   1.00
C33    C     0.21429   0.97619   1.47059   0.00000  Uiso   1.00
C34    C     0.16667   0.92857   1.47059   0.00000  Uiso   1.00
C35    C     0.07143   0.73810   1.47059   0.00000  Uiso   1.00
C36    C     0.02381   0.73810   1.47059   0.00000  Uiso   1.00
C37    C     0.02381   0.78571   1.47059   0.00000  Uiso   1.00
C38    C     0.07143   0.83333   1.47059   0.00000  Uiso   1.00
C39    C     0.16667   0.73810   1.47059   0.00000  Uiso   1.00
C40    C     0.21429   0.73810   1.47059   0.00000  Uiso   1.00
C41    C     0.26190   0.78571   1.47059   0.00000  Uiso   1.00
C42    C     0.26190   0.83333   1.47059   0.00000  Uiso   1.00
N7     N     0.21429   0.02381   1.47059   0.00000  Uiso   1.00
C43    C     0.26190   0.07143   1.47059   0.00000  Uiso   1.00
C44    C     0.30952   0.07143   1.47059   0.00000  Uiso   1.00
N8     N     0.30952   0.02381   1.47059   0.00000  Uiso   1.00
N9     N     0.97619   0.78571   1.47059   0.00000  Uiso   1.00
C45    C     0.92857   0.73810   1.47059   0.00000  Uiso   1.00
C46    C     0.92857   0.69048   1.47059   0.00000  Uiso   1.00
N10    N     0.97619   0.69048   1.47059   0.00000  Uiso   1.00
N11    N     0.30952   0.78571   1.47059   0.00000  Uiso   1.00
C47    C     0.30952   0.73810   1.47059   0.00000  Uiso   1.00
C48    C     0.26190   0.69048   1.47059   0.00000  Uiso   1.00
N12    N     0.21429   0.69048   1.47059   0.00000  Uiso   1.00
H7     H     0.29716   0.92857   1.47059   0.00000  Uiso   1.00
H8     H     0.13142   0.92857   1.47059   0.00000  Uiso   1.00
H9     H     0.07143   0.70284   1.47059   0.00000  Uiso   1.00
H10    H     0.07143   0.86858   1.47059   0.00000  Uiso   1.00
H11    H     0.13142   0.70284   1.47059   0.00000  Uiso   1.00
H12    H     0.29716   0.86858   1.47059   0.00000  Uiso   1.00
C49    C     0.88095   0.73810   1.47059   0.00000  Uiso   1.00
C50    C     0.83333   0.69048   1.47059   0.00000  Uiso   1.00
C51    C     0.83333   0.64286   1.47059   0.00000  Uiso   1.00
C52    C     0.88095   0.64286   1.47059   0.00000  Uiso   1.00
C53    C     0.78571   0.59524   1.47059   0.00000  Uiso   1.00
C54    C     0.78571   0.69048   1.47059   0.00000  Uiso   1.00
C55    C     0.78571   0.73810   1.47059   0.00000  Uiso   1.00
C56    C     0.83333   0.78571   1.47059   0.00000  Uiso   1.00
C57    C     0.88095   0.78571   1.47059   0.00000  Uiso   1.00
C58    C     0.88095   0.59524   1.47059   0.00000  Uiso   1.00
C59    C     0.83333   0.54762   1.47059   0.00000  Uiso   1.00
C60    C     0.78571   0.54762   1.47059   0.00000  Uiso   1.00
H13    H     0.75046   0.73810   1.47059   0.00000  Uiso   1.00
H14    H     0.83333   0.82096   1.47059   0.00000  Uiso   1.00
H15    H     0.91620   0.82096   1.47059   0.00000  Uiso   1.00
H16    H     0.91620   0.59524   1.47059   0.00000  Uiso   1.00
H17    H     0.83333   0.51237   1.47059   0.00000  Uiso   1.00
H18    H     0.75046   0.51237   1.47059   0.00000  Uiso   1.00
C61    C     0.35714   0.73810   1.47059   0.00000  Uiso   1.00
C62    C     0.35714   0.69048   1.47059   0.00000  Uiso   1.00
C63    C     0.30952   0.64286   1.47059   0.00000  Uiso   1.00
C64    C     0.26190   0.64286   1.47059   0.00000  Uiso   1.00
C65    C     0.30952   0.59524   1.47059   0.00000  Uiso   1.00
C66    C     0.40476   0.69048   1.47059   0.00000  Uiso   1.00
C67    C     0.45238   0.73810   1.47059   0.00000  Uiso   1.00
C68    C     0.45238   0.78571   1.47059   0.00000  Uiso   1.00
C69    C     0.40476   0.78571   1.47059   0.00000  Uiso   1.00
C70    C     0.21429   0.59524   1.47059   0.00000  Uiso   1.00
C71    C     0.21429   0.54762   1.47059   0.00000  Uiso   1.00
C72    C     0.26190   0.54762   1.47059   0.00000  Uiso   1.00
H19    H     0.48763   0.73810   1.47059   0.00000  Uiso   1.00
H20    H     0.48763   0.82096   1.47059   0.00000  Uiso   1.00
H21    H     0.40476   0.82096   1.47059   0.00000  Uiso   1.00
H22    H     0.17904   0.59524   1.47059   0.00000  Uiso   1.00
H23    H     0.17904   0.51237   1.47059   0.00000  Uiso   1.00
H24    H     0.26190   0.51237   1.47059   0.00000  Uiso   1.00
C73    C     0.26190   0.11905   1.47059   0.00000  Uiso   1.00
C74    C     0.30952   0.16667   1.47059   0.00000  Uiso   1.00
C75    C     0.35714   0.16667   1.47059   0.00000  Uiso   1.00
C76    C     0.35714   0.11905   1.47059   0.00000  Uiso   1.00
C77    C     0.40476   0.21429   1.47059   0.00000  Uiso   1.00
C78    C     0.30952   0.21429   1.47059   0.00000  Uiso   1.00
C79    C     0.26190   0.21429   1.47059   0.00000  Uiso   1.00
C80    C     0.21429   0.16667   1.47059   0.00000  Uiso   1.00
C81    C     0.21429   0.11905   1.47059   0.00000  Uiso   1.00
C82    C     0.40476   0.11905   1.47059   0.00000  Uiso   1.00
C83    C     0.45238   0.16667   1.47059   0.00000  Uiso   1.00
C84    C     0.45238   0.21429   1.47059   0.00000  Uiso   1.00
H25    H     0.26190   0.24954   1.47059   0.00000  Uiso   1.00
H26    H     0.17904   0.16667   1.47059   0.00000  Uiso   1.00
H27    H     0.17904   0.08380   1.47059   0.00000  Uiso   1.00
H28    H     0.40476   0.08380   1.47059   0.00000  Uiso   1.00
H29    H     0.48763   0.16667   1.47059   0.00000  Uiso   1.00
H30    H     0.48763   0.24954   1.47059   0.00000  Uiso   1.00
loop_
_geom_bond_atom_site_label_1
_geom_bond_atom_site_label_2
_geom_bond_distance
_geom_bond_site_symmetry_2
_ccdc_geom_bond_type
C1     C6      1.540   .     S
C1     C11     1.540   .     S
C1     C2      1.540   .     S
C2     C3      1.540   .     S
C2     C14     1.540   .     S
C3     C4      1.540   .     S
C3     C10     1.540   .     S
C4     C5      1.540   .     S
C4     C7      1.540   .     S
C5     C18     1.540   .     S
C5     C6      1.540   .     S
C6     C15     1.540   .     S
C7     H1      1.140   .     S
C7     C8      1.540   .     S
C8     C9      1.540   .     S
C8     N2      1.540   .     S
C9     C10     1.540   .     S
C9     N1      1.540   .     S
C10    H2      1.140   .     S
C11    H3      1.140   .     S
C11    C12     1.540   .     S
C12    N4      1.540   .     S
C12    C13     1.540   .     S
C13    N3      1.540   .     S
C13    C14     1.540   .     S
C14    H4      1.140   .     S
C15    C16     1.540   .     S
C15    H5      1.140   .     S
C16    N6      1.540   .     S
C16    C17     1.540   .     S
C17    N5      1.540   .     S
C17    C18     1.540   .     S
C18    H6      1.140   .     S
N1     C19     1.540   .     S
C19    C20     1.540   .     S
C19    C77     1.540   .     S
C20    N2      1.540   .     S
C20    C78     1.540   .     S
N3     C21     1.540   .     S
C21    C53     1.540   .     S
C21    C22     1.540   .     S
C22    N4      1.540   .     S
C22    C54     1.540   .     S
N5     C23     1.540   .     S
C23    C65     1.540   .     S
C23    C24     1.540   .     S
C24    C66     1.540   .     S
C24    N6      1.540   .     S
C25    C30     1.540   .     S
C25    C26     1.540   .     S
C25    C35     1.540   .     S
C26    C38     1.540   .     S
C26    C27     1.540   .     S
C27    C28     1.540   .     S
C27    C34     1.540   .     S
C28    C29     1.540   .     S
C28    C31     1.540   .     S
C29    C42     1.540   .     S
C29    C30     1.540   .     S
C30    C39     1.540   .     S
C31    H7      1.140   .     S
C31    C32     1.540   .     S
C32    C33     1.540   .     S
C33    C34     1.540   .     S
C34    H8      1.140   .     S
C35    H9      1.140   .     S
C35    C36     1.540   .     S
C36    C37     1.540   .     S
C37    C38     1.540   .     S
C38    H10     1.140   .     S
C39    H11     1.140   .     S
C39    C40     1.540   .     S
C40    C41     1.540   .     S
C40    N12     1.540   .     S
C41    N11     1.540   .     S
C41    C42     1.540   .     S
C42    H12     1.140   .     S
N7     C43     1.540   .     S
C43    C73     1.540   .     S
C43    C44     1.540   .     S
C44    C76     1.540   .     S
C44    N8      1.540   .     S
N9     C45     1.540   .     S
C45    C49     1.540   .     S
C45    C46     1.540   .     S
C46    C52     1.540   .     S
C46    N10     1.540   .     S
N11    C47     1.540   .     S
C47    C61     1.540   .     S
C47    C48     1.540   .     S
C48    C64     1.540   .     S
C48    N12     1.540   .     S
C49    C57     1.540   .     S
C49    C50     1.540   .     S
C50    C54     1.540   .     S
C50    C51     1.540   .     S
C51    C52     1.540   .     S
C51    C53     1.540   .     S
C52    C58     1.540   .     S
C53    C60     1.540   .     S
C54    C55     1.540   .     S
C55    H13     1.140   .     S
C55    C56     1.540   .     S
C56    C57     1.540   .     S
C56    H14     1.140   .     S
C57    H15     1.140   .     S
C58    H16     1.140   .     S
C58    C59     1.540   .     S
C59    H17     1.140   .     S
C59    C60     1.540   .     S
C60    H18     1.140   .     S
C61    C69     1.540   .     S
C61    C62     1.540   .     S
C62    C63     1.540   .     S
C62    C66     1.540   .     S
C63    C64     1.540   .     S
C63    C65     1.540   .     S
C64    C70     1.540   .     S
C65    C72     1.540   .     S
C66    C67     1.540   .     S
C67    H19     1.140   .     S
C67    C68     1.540   .     S
C68    H20     1.140   .     S
C68    C69     1.540   .     S
C69    H21     1.140   .     S
C70    H22     1.140   .     S
C70    C71     1.540   .     S
C71    H23     1.140   .     S
C71    C72     1.540   .     S
C72    H24     1.140   .     S
C73    C81     1.540   .     S
C73    C74     1.540   .     S
C74    C75     1.540   .     S
C74    C78     1.540   .     S
C75    C77     1.540   .     S
C75    C76     1.540   .     S
C76    C82     1.540   .     S
C77    C84     1.540   .     S
C78    C79     1.540   .     S
C79    H25     1.140   .     S
C79    C80     1.540   .     S
C80    H26     1.140   .     S
C80    C81     1.540   .     S
C81    H27     1.140   .     S
C82    H28     1.140   .     S
C82    C83     1.540   .     S
C83    H29     1.140   .     S
C83    C84     1.540   .     S
C84    H30     1.140   .     S
