data_CTC-COF
_audit_creation_date              2016-12-13
_audit_creation_method            'Materials Studio'
_symmetry_space_group_name_H-M    'P1'
_symmetry_Int_Tables_number       1
_symmetry_cell_setting            triclinic
loop_
_symmetry_equiv_pos_as_xyz
  x,y,z
_cell_length_a                    25.0645
_cell_length_b                    25.0645
_cell_length_c                    4.2989
_cell_angle_alpha                 90.0000
_cell_angle_beta                  90.0000
_cell_angle_gamma                 120.0000
loop_
_atom_site_label
_atom_site_type_symbol
_atom_site_fract_x
_atom_site_fract_y
_atom_site_fract_z
_atom_site_U_iso_or_equiv
_atom_site_adp_type
_atom_site_occupancy
C1     C     0.55638   0.38826  -0.79595   0.00000  Uiso   1.00
C2     C     0.54748   0.34038  -0.98469   0.00000  Uiso   1.00
C3     C     0.59625   0.34775  -1.17298   0.00000  Uiso   1.00
C4     C     0.46388   0.44021  -0.10750   0.00000  Uiso   1.00
O1     O     0.51685   0.39176  -0.59138   0.00000  Uiso   1.00
H1     H     0.50315   0.29735  -0.98872   0.00000  Uiso   1.00
H2     H     0.43562   0.39304  -0.19472   0.00000  Uiso   1.00
C5     C     0.61174   0.16812  -0.79595   0.00000  Uiso   1.00
C6     C     0.65962   0.20710  -0.98469   0.00000  Uiso   1.00
C7     C     0.65225   0.24850  -1.17298   0.00000  Uiso   1.00
C8     C     0.55979   0.02367  -0.10750   0.00000  Uiso   1.00
O2     O     0.60824   0.12509  -0.59138   0.00000  Uiso   1.00
H3     H     0.70265   0.20580  -0.98872   0.00000  Uiso   1.00
H4     H     0.60696   0.04258  -0.19472   0.00000  Uiso   1.00
C9     C     0.83188   0.44362  -0.79595   0.00000  Uiso   1.00
C10    C     0.79290   0.45252  -0.98469   0.00000  Uiso   1.00
C11    C     0.75150   0.40375  -1.17298   0.00000  Uiso   1.00
C12    C     0.97633   0.53612  -0.10750   0.00000  Uiso   1.00
O3     O     0.87491   0.48315  -0.59138   0.00000  Uiso   1.00
H5     H     0.79420   0.49685  -0.98872   0.00000  Uiso   1.00
H6     H     0.95742   0.56438  -0.19472   0.00000  Uiso   1.00
C13    C     0.38826   0.55638   0.79595   0.00000  Uiso   1.00
C14    C     0.34038   0.54748   0.98469   0.00000  Uiso   1.00
C15    C     0.34775   0.59625   1.17298   0.00000  Uiso   1.00
C16    C     0.44021   0.46388   0.10750   0.00000  Uiso   1.00
O4     O     0.39176   0.51685   0.59138   0.00000  Uiso   1.00
H7     H     0.29735   0.50315   0.98872   0.00000  Uiso   1.00
H8     H     0.39304   0.43562   0.19472   0.00000  Uiso   1.00
C17    C     0.16812   0.61174   0.79595   0.00000  Uiso   1.00
C18    C     0.20710   0.65962   0.98469   0.00000  Uiso   1.00
C19    C     0.24850   0.65225   1.17298   0.00000  Uiso   1.00
C20    C     0.02367   0.55979   0.10750   0.00000  Uiso   1.00
O5     O     0.12509   0.60824   0.59138   0.00000  Uiso   1.00
H9     H     0.20580   0.70265   0.98872   0.00000  Uiso   1.00
H10    H     0.04258   0.60696   0.19472   0.00000  Uiso   1.00
C21    C     0.44362   0.83188   0.79595   0.00000  Uiso   1.00
C22    C     0.45252   0.79290   0.98469   0.00000  Uiso   1.00
C23    C     0.40375   0.75150   1.17298   0.00000  Uiso   1.00
C24    C     0.53612   0.97633   0.10750   0.00000  Uiso   1.00
O6     O     0.48315   0.87491   0.59138   0.00000  Uiso   1.00
H11    H     0.49685   0.79420   0.98872   0.00000  Uiso   1.00
H12    H     0.56438   0.95742   0.19472   0.00000  Uiso   1.00
C25    C     0.44362   0.61174   0.79595   0.00000  Uiso   1.00
C26    C     0.45252   0.65962   0.98469   0.00000  Uiso   1.00
C27    C     0.40375   0.65225   1.17298   0.00000  Uiso   1.00
C28    C     0.53612   0.55979   0.10750   0.00000  Uiso   1.00
O7     O     0.48315   0.60824   0.59138   0.00000  Uiso   1.00
H13    H     0.49685   0.70265   0.98872   0.00000  Uiso   1.00
H14    H     0.56438   0.60696   0.19472   0.00000  Uiso   1.00
C29    C     0.38826   0.83188   0.79595   0.00000  Uiso   1.00
C30    C     0.34038   0.79290   0.98469   0.00000  Uiso   1.00
C31    C     0.34775   0.75150   1.17298   0.00000  Uiso   1.00
C32    C     0.44021   0.97633   0.10750   0.00000  Uiso   1.00
O8     O     0.39176   0.87491   0.59138   0.00000  Uiso   1.00
H15    H     0.29735   0.79420   0.98872   0.00000  Uiso   1.00
H16    H     0.39304   0.95742   0.19472   0.00000  Uiso   1.00
C33    C     0.16812   0.55638   0.79595   0.00000  Uiso   1.00
C34    C     0.20710   0.54748   0.98469   0.00000  Uiso   1.00
C35    C     0.24850   0.59625   1.17298   0.00000  Uiso   1.00
C36    C     0.02367   0.46388   0.10750   0.00000  Uiso   1.00
O9     O     0.12509   0.51685   0.59138   0.00000  Uiso   1.00
H17    H     0.20580   0.50315   0.98872   0.00000  Uiso   1.00
H18    H     0.04258   0.43562   0.19472   0.00000  Uiso   1.00
C37    C     0.61174   0.44362  -0.79595   0.00000  Uiso   1.00
C38    C     0.65962   0.45252  -0.98469   0.00000  Uiso   1.00
C39    C     0.65225   0.40375  -1.17298   0.00000  Uiso   1.00
C40    C     0.55979   0.53612  -0.10750   0.00000  Uiso   1.00
O10    O     0.60824   0.48315  -0.59138   0.00000  Uiso   1.00
H19    H     0.70265   0.49685  -0.98872   0.00000  Uiso   1.00
H20    H     0.60696   0.56438  -0.19472   0.00000  Uiso   1.00
C41    C     0.83188   0.38826  -0.79595   0.00000  Uiso   1.00
C42    C     0.79290   0.34038  -0.98469   0.00000  Uiso   1.00
C43    C     0.75150   0.34775  -1.17298   0.00000  Uiso   1.00
C44    C     0.97633   0.44021  -0.10750   0.00000  Uiso   1.00
O11    O     0.87491   0.39176  -0.59138   0.00000  Uiso   1.00
H21    H     0.79420   0.29735  -0.98872   0.00000  Uiso   1.00
H22    H     0.95742   0.39304  -0.19472   0.00000  Uiso   1.00
C45    C     0.55638   0.16812  -0.79595   0.00000  Uiso   1.00
C46    C     0.54748   0.20710  -0.98469   0.00000  Uiso   1.00
C47    C     0.59625   0.24850  -1.17298   0.00000  Uiso   1.00
C48    C     0.46388   0.02367  -0.10750   0.00000  Uiso   1.00
O12    O     0.51685   0.12509  -0.59138   0.00000  Uiso   1.00
H23    H     0.50315   0.20580  -0.98872   0.00000  Uiso   1.00
H24    H     0.43562   0.04258  -0.19472   0.00000  Uiso   1.00
C49    C     0.58635   0.29318  -1.36162   0.00000  Uiso   1.00
H25    H     0.53847   0.26923  -1.44962   0.00000  Uiso   1.00
H26    H     0.61512   0.30756  -1.57271   0.00000  Uiso   1.00
C50    C     0.70683   0.29318  -1.36162   0.00000  Uiso   1.00
H27    H     0.73076   0.26923  -1.44962   0.00000  Uiso   1.00
H28    H     0.69244   0.30756  -1.57271   0.00000  Uiso   1.00
C51    C     0.70683   0.41365  -1.36162   0.00000  Uiso   1.00
H29    H     0.73077   0.46153  -1.44962   0.00000  Uiso   1.00
H30    H     0.69244   0.38488  -1.57271   0.00000  Uiso   1.00
C52    C     0.29318   0.58635   1.36162   0.00000  Uiso   1.00
H31    H     0.26923   0.53847   1.44962   0.00000  Uiso   1.00
H32    H     0.30756   0.61512   1.57271   0.00000  Uiso   1.00
C53    C     0.29317   0.70682   1.36162   0.00000  Uiso   1.00
H33    H     0.26923   0.73076   1.44962   0.00000  Uiso   1.00
H34    H     0.30756   0.69244   1.57271   0.00000  Uiso   1.00
C54    C     0.41365   0.70682   1.36162   0.00000  Uiso   1.00
H35    H     0.46153   0.73076   1.44962   0.00000  Uiso   1.00
H36    H     0.38488   0.69244   1.57271   0.00000  Uiso   1.00
C55    C     0.52400   0.47600  -0.21855   0.00000  Uiso   1.00
B1     B     0.54943   0.45057  -0.46376   0.00000  Uiso   1.00
C56    C     0.52400   0.04800  -0.21855   0.00000  Uiso   1.00
B2     B     0.54943   0.09886  -0.46376   0.00000  Uiso   1.00
C57    C     0.95200   0.47600  -0.21855   0.00000  Uiso   1.00
B3     B     0.90114   0.45057  -0.46376   0.00000  Uiso   1.00
C58    C     0.47600   0.52400   0.21855   0.00000  Uiso   1.00
B4     B     0.45057   0.54943   0.46376   0.00000  Uiso   1.00
C59    C     0.04800   0.52400   0.21855   0.00000  Uiso   1.00
B5     B     0.09886   0.54943   0.46376   0.00000  Uiso   1.00
C60    C     0.47600   0.95200   0.21855   0.00000  Uiso   1.00
B6     B     0.45057   0.90114   0.46376   0.00000  Uiso   1.00
loop_
_geom_bond_atom_site_label_1
_geom_bond_atom_site_label_2
_geom_bond_distance
_geom_bond_site_symmetry_2
_ccdc_geom_bond_type
C1     O1      1.360   .     S
C1     C37     1.388   .     S
C1     C2      1.371   .     S
C2     C3      1.399   .     S
C2     H1      1.095   .     S
C3     C39     1.404   .     S
C3     C49     1.500   .     S
C4     C55     1.397   .     S
C4     H2      1.097   .     S
C4     C16     1.382   .     S
O1     B1      1.392   .     S
C5     C45     1.388   .     S
C5     O2      1.360   .     S
C5     C6      1.371   .     S
C6     H3      1.095   .     S
C6     C7      1.399   .     S
C7     C47     1.404   .     S
C7     C50     1.500   .     S
C8     C56     1.397   .     S
C8     H4      1.097   .     S
O2     B2      1.392   .     S
C9     O3      1.360   .     S
C9     C41     1.388   .     S
C9     C10     1.371   .     S
C10    H5      1.095   .     S
C10    C11     1.399   .     S
C11    C43     1.404   .     S
C11    C51     1.500   .     S
C12    H6      1.097   .     S
C12    C57     1.397   .     S
O3     B3      1.392   .     S
C13    O4      1.360   .     S
C13    C25     1.388   .     S
C13    C14     1.371   .     S
C14    H7      1.095   .     S
C14    C15     1.399   .     S
C15    C27     1.404   .     S
C15    C52     1.500   .     S
C16    H8      1.097   .     S
C16    C58     1.397   .     S
O4     B4      1.392   .     S
C17    O5      1.360   .     S
C17    C33     1.388   .     S
C17    C18     1.371   .     S
C18    H9      1.095   .     S
C18    C19     1.399   .     S
C19    C35     1.404   .     S
C19    C53     1.500   .     S
C20    C59     1.397   .     S
C20    H10     1.097   .     S
O5     B5      1.392   .     S
C21    O6      1.360   .     S
C21    C29     1.388   .     S
C21    C22     1.371   .     S
C22    C23     1.399   .     S
C22    H11     1.095   .     S
C23    C31     1.404   .     S
C23    C54     1.500   .     S
C24    C60     1.397   .     S
C24    H12     1.097   .     S
O6     B6      1.392   .     S
C25    O7      1.360   .     S
C25    C26     1.371   .     S
C26    H13     1.095   .     S
C26    C27     1.399   .     S
C27    C54     1.500   .     S
C28    C58     1.397   .     S
C28    H14     1.097   .     S
C28    C40     1.382   .     S
O7     B4      1.392   .     S
C29    O8      1.360   .     S
C29    C30     1.371   .     S
C30    C31     1.399   .     S
C30    H15     1.095   .     S
C31    C53     1.500   .     S
C32    H16     1.097   .     S
C32    C60     1.397   .     S
O8     B6      1.392   .     S
C33    O9      1.360   .     S
C33    C34     1.371   .     S
C34    H17     1.095   .     S
C34    C35     1.399   .     S
C35    C52     1.500   .     S
C36    H18     1.097   .     S
C36    C59     1.397   .     S
O9     B5      1.392   .     S
C37    O10     1.360   .     S
C37    C38     1.371   .     S
C38    H19     1.095   .     S
C38    C39     1.399   .     S
C39    C51     1.500   .     S
C40    H20     1.097   .     S
C40    C55     1.397   .     S
O10    B1      1.392   .     S
C41    O11     1.360   .     S
C41    C42     1.371   .     S
C42    C43     1.399   .     S
C42    H21     1.095   .     S
C43    C50     1.500   .     S
C44    C57     1.397   .     S
C44    H22     1.097   .     S
O11    B3      1.392   .     S
C45    O12     1.360   .     S
C45    C46     1.371   .     S
C46    H23     1.095   .     S
C46    C47     1.399   .     S
C47    C49     1.500   .     S
C48    H24     1.097   .     S
C48    C56     1.397   .     S
O12    B2      1.392   .     S
C49    H26     1.102   .     S
C49    H25     1.106   .     S
C50    H28     1.102   .     S
C50    H27     1.106   .     S
C51    H29     1.106   .     S
C51    H30     1.102   .     S
C52    H32     1.102   .     S
C52    H31     1.106   .     S
C53    H34     1.102   .     S
C53    H33     1.106   .     S
C54    H36     1.102   .     S
C54    H35     1.106   .     S
C55    B1      1.526   .     S
C56    B2      1.526   .     S
C57    B3      1.526   .     S
C58    B4      1.526   .     S
C59    B5      1.526   .     S
C60    B6      1.526   .     S
