data_CTF-1
_audit_creation_date              2016-12-13
_audit_creation_method            'Materials Studio'
_symmetry_space_group_name_H-M    'P1'
_symmetry_Int_Tables_number       1
_symmetry_cell_setting            triclinic
loop_
_symmetry_equiv_pos_as_xyz
  x,y,z
_cell_length_a                    14.5740
_cell_length_b                    14.5740
_cell_length_c                    3.4040
_cell_angle_alpha                 90.0000
_cell_angle_beta                  90.0000
_cell_angle_gamma                 120.0000
loop_
_atom_site_label
_atom_site_type_symbol
_atom_site_fract_x
_atom_site_fract_y
_atom_site_fract_z
_atom_site_U_iso_or_equiv
_atom_site_adp_type
_atom_site_occupancy
C1     C     0.61442   0.38558   0.50000   0.00000  Uiso   1.00
C2     C     0.55579   0.44421   0.50000   0.00000  Uiso   1.00
C3     C     0.61442   0.22884   0.50000   0.00000  Uiso   1.00
C4     C     0.55579   0.11158   0.50000   0.00000  Uiso   1.00
C5     C     0.77116   0.38558   0.50000   0.00000  Uiso   1.00
C6     C     0.88842   0.44421   0.50000   0.00000  Uiso   1.00
C7     C     0.38558   0.61442   0.50000   0.00000  Uiso   1.00
C8     C     0.44421   0.55579   0.50000   0.00000  Uiso   1.00
C9     C     0.38558   0.77116   0.50000   0.00000  Uiso   1.00
C10    C     0.44421   0.88842   0.50000   0.00000  Uiso   1.00
C11    C     0.22884   0.61442   0.50000   0.00000  Uiso   1.00
C12    C     0.11158   0.55579   0.50000   0.00000  Uiso   1.00
C13    C     0.61057   0.55561   0.50000   0.00000  Uiso   1.00
H1     H     0.59755   0.69654   0.50000   0.00000  Uiso   1.00
C14    C     0.44439   0.05496   0.50000   0.00000  Uiso   1.00
H2     H     0.30346   0.90101   0.50000   0.00000  Uiso   1.00
C15    C     0.94504   0.38943   0.50000   0.00000  Uiso   1.00
H3     H     0.09899   0.40245   0.50000   0.00000  Uiso   1.00
C16    C     0.38943   0.44439   0.50000   0.00000  Uiso   1.00
H4     H     0.40245   0.30346   0.50000   0.00000  Uiso   1.00
C17    C     0.55561   0.94504   0.50000   0.00000  Uiso   1.00
H5     H     0.69654   0.09899   0.50000   0.00000  Uiso   1.00
C18    C     0.05496   0.61057   0.50000   0.00000  Uiso   1.00
H6     H     0.90101   0.59755   0.50000   0.00000  Uiso   1.00
C19    C     0.55561   0.61057   0.50000   0.00000  Uiso   1.00
H7     H     0.69654   0.59755   0.50000   0.00000  Uiso   1.00
C20    C     0.05496   0.44439   0.50000   0.00000  Uiso   1.00
H8     H     0.90101   0.30346   0.50000   0.00000  Uiso   1.00
C21    C     0.38943   0.94504   0.50000   0.00000  Uiso   1.00
H9     H     0.40245   0.09899   0.50000   0.00000  Uiso   1.00
C22    C     0.44439   0.38943   0.50000   0.00000  Uiso   1.00
H10    H     0.30346   0.40245   0.50000   0.00000  Uiso   1.00
C23    C     0.94504   0.55561   0.50000   0.00000  Uiso   1.00
H11    H     0.09899   0.69654   0.50000   0.00000  Uiso   1.00
C24    C     0.61057   0.05496   0.50000   0.00000  Uiso   1.00
H12    H     0.59755   0.90101   0.50000   0.00000  Uiso   1.00
N1     N     0.44255   0.72128   0.50000   0.00000  Uiso   1.00
N2     N     0.27872   0.72128   0.50000   0.00000  Uiso   1.00
N3     N     0.27872   0.55745   0.50000   0.00000  Uiso   1.00
N4     N     0.55745   0.27872   0.50000   0.00000  Uiso   1.00
N5     N     0.72128   0.27872   0.50000   0.00000  Uiso   1.00
N6     N     0.72128   0.44255   0.50000   0.00000  Uiso   1.00
loop_
_geom_bond_atom_site_label_1
_geom_bond_atom_site_label_2
_geom_bond_distance
_geom_bond_site_symmetry_2
_ccdc_geom_bond_type
C1     C2      1.480   .     S
C1     N6      1.350   .     S
C1     N4      1.350   .     S
C2     C13     1.406   .     S
C2     C22     1.406   .     S
C3     N5      1.350   .     S
C3     N4      1.350   .     S
C3     C4      1.480   .     S
C4     C24     1.406   .     S
C4     C14     1.406   .     S
C5     N6      1.350   .     S
C5     C6      1.480   .     S
C5     N5      1.350   .     S
C6     C23     1.406   .     S
C6     C15     1.406   .     S
C7     N1      1.350   .     S
C7     N3      1.350   .     S
C7     C8      1.480   .     S
C8     C16     1.406   .     S
C8     C19     1.406   .     S
C9     N1      1.350   .     S
C9     N2      1.350   .     S
C9     C10     1.480   .     S
C10    C17     1.406   .     S
C10    C21     1.406   .     S
C11    N2      1.350   .     S
C11    C12     1.480   .     S
C11    N3      1.350   .     S
C12    C20     1.406   .     S
C12    C18     1.406   .     S
C13    C19     1.387   .     S
C13    H7      1.085   .     S
H1     C19     1.085   .     S
C14    H9      1.085   .     S
H2     C21     1.085   .     S
C15    H8      1.085   .     S
H3     C20     1.085   .     S
C16    H10     1.085   .     S
C16    C22     1.387   .     S
H4     C22     1.085   .     S
C17    H12     1.085   .     S
H5     C24     1.085   .     S
C18    H11     1.085   .     S
H6     C23     1.085   .     S
