data_CTF-2-AA
_audit_creation_date              2016-12-13
_audit_creation_method            'Materials Studio'
_symmetry_space_group_name_H-M    'P1'
_symmetry_Int_Tables_number       1
_symmetry_cell_setting            triclinic
loop_
_symmetry_equiv_pos_as_xyz
  x,y,z
_cell_length_a                    18.3600
_cell_length_b                    18.3600
_cell_length_c                    3.3600
_cell_angle_alpha                 90.0000
_cell_angle_beta                  90.0000
_cell_angle_gamma                 120.0000
loop_
_atom_site_label
_atom_site_type_symbol
_atom_site_fract_x
_atom_site_fract_y
_atom_site_fract_z
_atom_site_U_iso_or_equiv
_atom_site_adp_type
_atom_site_occupancy
C1     C     0.36690   0.61740   0.50000   0.00000  Uiso   1.00
C2     C     0.40377   0.56182   0.50000   0.00000  Uiso   1.00
C3     C     0.38620   0.42178   0.50000   0.00000  Uiso   1.00
C4     C     0.49150   0.59607   0.50000   0.00000  Uiso   1.00
C5     C     0.35164   0.47389   0.50000   0.00000  Uiso   1.00
N1     N     0.28228   0.58082   0.50000   0.00000  Uiso   1.00
C6     C     0.52606   0.54396   0.50000   0.00000  Uiso   1.00
H1     H     0.34312   0.35061   0.50000   0.00000  Uiso   1.00
H2     H     0.53459   0.66724   0.50000   0.00000  Uiso   1.00
H3     H     0.28040   0.44518   0.50000   0.00000  Uiso   1.00
C7     C     0.38260   0.74950   0.50000   0.00000  Uiso   1.00
C8     C     0.43818   0.84195   0.50000   0.00000  Uiso   1.00
C9     C     0.57822   0.96442   0.50000   0.00000  Uiso   1.00
C10    C     0.40393   0.89543   0.50000   0.00000  Uiso   1.00
C11    C     0.52611   0.87775   0.50000   0.00000  Uiso   1.00
N2     N     0.41918   0.70146   0.50000   0.00000  Uiso   1.00
C12    C     0.45604   0.98210   0.50000   0.00000  Uiso   1.00
H4     H     0.64939   0.99251   0.50000   0.00000  Uiso   1.00
H5     H     0.33276   0.86735   0.50000   0.00000  Uiso   1.00
H6     H     0.55482   0.83522   0.50000   0.00000  Uiso   1.00
C13    C     0.25050   0.63310   0.50000   0.00000  Uiso   1.00
C14    C     0.15805   0.59623   0.50000   0.00000  Uiso   1.00
C15    C     0.03558   0.61380   0.50000   0.00000  Uiso   1.00
C16    C     0.10457   0.50850   0.50000   0.00000  Uiso   1.00
C17    C     0.12225   0.64836   0.50000   0.00000  Uiso   1.00
N3     N     0.29854   0.71772   0.50000   0.00000  Uiso   1.00
C18    C     0.01790   0.47394   0.50000   0.00000  Uiso   1.00
H7     H     0.00749   0.65688   0.50000   0.00000  Uiso   1.00
H8     H     0.13265   0.46541   0.50000   0.00000  Uiso   1.00
H9     H     0.16478   0.71960   0.50000   0.00000  Uiso   1.00
C19    C     0.63310   0.38260   0.50000   0.00000  Uiso   1.00
C20    C     0.59623   0.43818   0.50000   0.00000  Uiso   1.00
C21    C     0.61380   0.57822   0.50000   0.00000  Uiso   1.00
C22    C     0.50850   0.40393   0.50000   0.00000  Uiso   1.00
C23    C     0.64836   0.52611   0.50000   0.00000  Uiso   1.00
N4     N     0.71772   0.41918   0.50000   0.00000  Uiso   1.00
C24    C     0.47394   0.45604   0.50000   0.00000  Uiso   1.00
H10    H     0.65688   0.64939   0.50000   0.00000  Uiso   1.00
H11    H     0.46541   0.33276   0.50000   0.00000  Uiso   1.00
H12    H     0.71960   0.55482   0.50000   0.00000  Uiso   1.00
C25    C     0.61740   0.25050   0.50000   0.00000  Uiso   1.00
C26    C     0.56182   0.15805   0.50000   0.00000  Uiso   1.00
C27    C     0.42178   0.03558   0.50000   0.00000  Uiso   1.00
C28    C     0.59607   0.10457   0.50000   0.00000  Uiso   1.00
C29    C     0.47389   0.12225   0.50000   0.00000  Uiso   1.00
N5     N     0.58082   0.29854   0.50000   0.00000  Uiso   1.00
C30    C     0.54396   0.01790   0.50000   0.00000  Uiso   1.00
H13    H     0.35061   0.00749   0.50000   0.00000  Uiso   1.00
H14    H     0.66724   0.13265   0.50000   0.00000  Uiso   1.00
H15    H     0.44518   0.16478   0.50000   0.00000  Uiso   1.00
C31    C     0.74950   0.36690   0.50000   0.00000  Uiso   1.00
C32    C     0.84195   0.40377   0.50000   0.00000  Uiso   1.00
C33    C     0.96442   0.38620   0.50000   0.00000  Uiso   1.00
C34    C     0.89543   0.49150   0.50000   0.00000  Uiso   1.00
C35    C     0.87775   0.35164   0.50000   0.00000  Uiso   1.00
N6     N     0.70146   0.28228   0.50000   0.00000  Uiso   1.00
C36    C     0.98210   0.52606   0.50000   0.00000  Uiso   1.00
H16    H     0.99251   0.34312   0.50000   0.00000  Uiso   1.00
H17    H     0.86735   0.53459   0.50000   0.00000  Uiso   1.00
H18    H     0.83522   0.28040   0.50000   0.00000  Uiso   1.00
loop_
_geom_bond_atom_site_label_1
_geom_bond_atom_site_label_2
_geom_bond_distance
_geom_bond_site_symmetry_2
_ccdc_geom_bond_type
C1     N1      1.350   .     S
C1     C2      1.480   .     S
C1     N2      1.350   .     S
C2     C4      1.406   .     S
C2     C5      1.406   .     S
C3     H1      1.140   .     S
C3     C5      1.387   .     S
C3     C24     1.406   .     S
C4     H2      1.140   .     S
C4     C6      1.387   .     S
C5     H3      1.140   .     S
N1     C13     1.350   .     S
C6     C24     1.406   .     S
C6     C21     1.406   .     S
C7     N2      1.350   .     S
C7     N3      1.350   .     S
C7     C8      1.480   .     S
C8     C11     1.406   .     S
C8     C10     1.406   .     S
C9     H4      1.140   .     S
C9     C11     1.387   .     S
C10    C12     1.387   .     S
C10    H5      1.140   .     S
C11    H6      1.140   .     S
C13    C14     1.480   .     S
C13    N3      1.350   .     S
C14    C17     1.406   .     S
C14    C16     1.406   .     S
C15    C17     1.387   .     S
C15    H7      1.140   .     S
C16    H8      1.140   .     S
C16    C18     1.387   .     S
C17    H9      1.140   .     S
C19    C20     1.480   .     S
C19    N4      1.350   .     S
C19    N5      1.350   .     S
C20    C22     1.406   .     S
C20    C23     1.406   .     S
C21    H10     1.140   .     S
C21    C23     1.387   .     S
C22    C24     1.387   .     S
C22    H11     1.140   .     S
C23    H12     1.140   .     S
N4     C31     1.350   .     S
C25    N6      1.350   .     S
C25    N5      1.350   .     S
C25    C26     1.480   .     S
C26    C29     1.406   .     S
C26    C28     1.406   .     S
C27    H13     1.140   .     S
C27    C29     1.387   .     S
C28    C30     1.387   .     S
C28    H14     1.140   .     S
C29    H15     1.140   .     S
C31    C32     1.480   .     S
C31    N6      1.350   .     S
C32    C35     1.406   .     S
C32    C34     1.406   .     S
C33    C35     1.387   .     S
C33    H16     1.140   .     S
C34    H17     1.140   .     S
C34    C36     1.387   .     S
C35    H18     1.140   .     S
