data_CTF-NDC
_audit_creation_date              2016-12-13
_audit_creation_method            'Materials Studio'
_symmetry_space_group_name_H-M    'P1'
_symmetry_Int_Tables_number       1
_symmetry_cell_setting            triclinic
loop_
_symmetry_equiv_pos_as_xyz
  x,y,z
_cell_length_a                    14.9467
_cell_length_b                    14.9467
_cell_length_c                    3.4418
_cell_angle_alpha                 90.0000
_cell_angle_beta                  90.0000
_cell_angle_gamma                 120.0000
loop_
_atom_site_label
_atom_site_type_symbol
_atom_site_fract_x
_atom_site_fract_y
_atom_site_fract_z
_atom_site_U_iso_or_equiv
_atom_site_adp_type
_atom_site_occupancy
C1     C     0.22942   0.60034   0.50000   0.00000  Uiso   1.00
N1     N     0.26883   0.70361   0.50000   0.00000  Uiso   1.00
H1     H     0.08834   0.65957   0.50000   0.00000  Uiso   1.00
C2     C     0.10668   0.35921   0.50000   0.00000  Uiso   1.00
H2     H     0.18749   0.39298   0.50000   0.00000  Uiso   1.00
C3     C     0.05322   0.25204   0.50000   0.00000  Uiso   1.00
H3     H     0.09492   0.21008   0.50000   0.00000  Uiso   1.00
C4     C     0.94399   0.36151   0.50000   0.00000  Uiso   1.00
C5     C     0.11226   0.52870   0.50000   0.00000  Uiso   1.00
C6     C     0.05320   0.57739   0.50000   0.00000  Uiso   1.00
C7     C     0.39966   0.62908   0.50000   0.00000  Uiso   1.00
N2     N     0.29639   0.56522   0.50000   0.00000  Uiso   1.00
H4     H     0.34043   0.42877   0.50000   0.00000  Uiso   1.00
C8     C     0.64079   0.74747   0.50000   0.00000  Uiso   1.00
H5     H     0.60702   0.79451   0.50000   0.00000  Uiso   1.00
C9     C     0.74796   0.80118   0.50000   0.00000  Uiso   1.00
H6     H     0.78992   0.88484   0.50000   0.00000  Uiso   1.00
C10    C     0.63849   0.58248   0.50000   0.00000  Uiso   1.00
C11    C     0.47130   0.58356   0.50000   0.00000  Uiso   1.00
C12    C     0.42261   0.47581   0.50000   0.00000  Uiso   1.00
C13    C     0.37092   0.77058   0.50000   0.00000  Uiso   1.00
N3     N     0.43478   0.73117   0.50000   0.00000  Uiso   1.00
H7     H     0.57123   0.91166   0.50000   0.00000  Uiso   1.00
C14    C     0.25253   0.89332   0.50000   0.00000  Uiso   1.00
H8     H     0.20549   0.81251   0.50000   0.00000  Uiso   1.00
C15    C     0.19882   0.94678   0.50000   0.00000  Uiso   1.00
H9     H     0.11516   0.90508   0.50000   0.00000  Uiso   1.00
C16    C     0.41752   0.05601   0.50000   0.00000  Uiso   1.00
C17    C     0.41644   0.88774   0.50000   0.00000  Uiso   1.00
C18    C     0.52419   0.94680   0.50000   0.00000  Uiso   1.00
C19    C     0.60034   0.22942   0.50000   0.00000  Uiso   1.00
N4     N     0.70361   0.26883   0.50000   0.00000  Uiso   1.00
H10    H     0.65957   0.08834   0.50000   0.00000  Uiso   1.00
C20    C     0.35921   0.10668   0.50000   0.00000  Uiso   1.00
H11    H     0.39298   0.18749   0.50000   0.00000  Uiso   1.00
C21    C     0.25204   0.05322   0.50000   0.00000  Uiso   1.00
H12    H     0.21008   0.09492   0.50000   0.00000  Uiso   1.00
C22    C     0.36151   0.94399   0.50000   0.00000  Uiso   1.00
C23    C     0.52870   0.11226   0.50000   0.00000  Uiso   1.00
C24    C     0.57739   0.05320   0.50000   0.00000  Uiso   1.00
C25    C     0.62908   0.39966   0.50000   0.00000  Uiso   1.00
N5     N     0.56522   0.29639   0.50000   0.00000  Uiso   1.00
H13    H     0.42877   0.34043   0.50000   0.00000  Uiso   1.00
C26    C     0.74747   0.64079   0.50000   0.00000  Uiso   1.00
H14    H     0.79451   0.60702   0.50000   0.00000  Uiso   1.00
C27    C     0.80118   0.74796   0.50000   0.00000  Uiso   1.00
H15    H     0.88484   0.78992   0.50000   0.00000  Uiso   1.00
C28    C     0.58248   0.63849   0.50000   0.00000  Uiso   1.00
C29    C     0.58356   0.47130   0.50000   0.00000  Uiso   1.00
C30    C     0.47581   0.42261   0.50000   0.00000  Uiso   1.00
C31    C     0.77058   0.37092   0.50000   0.00000  Uiso   1.00
N6     N     0.73117   0.43478   0.50000   0.00000  Uiso   1.00
H16    H     0.91166   0.57123   0.50000   0.00000  Uiso   1.00
C32    C     0.89332   0.25253   0.50000   0.00000  Uiso   1.00
H17    H     0.81251   0.20549   0.50000   0.00000  Uiso   1.00
C33    C     0.94678   0.19882   0.50000   0.00000  Uiso   1.00
H18    H     0.90508   0.11516   0.50000   0.00000  Uiso   1.00
C34    C     0.05601   0.41752   0.50000   0.00000  Uiso   1.00
C35    C     0.88774   0.41644   0.50000   0.00000  Uiso   1.00
C36    C     0.94680   0.52419   0.50000   0.00000  Uiso   1.00
loop_
_geom_bond_atom_site_label_1
_geom_bond_atom_site_label_2
_geom_bond_distance
_geom_bond_site_symmetry_2
_ccdc_geom_bond_type
C1     N2      1.343   .     S
C1     N1      1.349   .     S
C1     C5      1.529   .     S
N1     C13     1.343   .     S
H1     C6      1.067   .     S
C2     H2      1.051   .     S
C2     C34     1.412   .     S
C2     C3      1.387   .     S
C3     H3      1.083   .     S
C4     C35     1.439   .     S
C4     C32     1.412   .     S
C5     C34     1.439   .     S
C5     C6      1.397   .     S
C7     N2      1.349   .     S
C7     C11     1.529   .     S
C7     N3      1.343   .     S
H4     C12     1.067   .     S
C8     C9      1.387   .     S
C8     H5      1.051   .     S
C8     C28     1.412   .     S
C9     C27     1.378   .     S
C9     H6      1.083   .     S
C10    C28     1.450   .     S
C10    C26     1.412   .     S
C10    C29     1.439   .     S
C11    C28     1.439   .     S
C11    C12     1.397   .     S
C12    C30     1.377   .     S
C13    N3      1.349   .     S
C13    C17     1.529   .     S
H7     C18     1.067   .     S
C14    C15     1.387   .     S
C14    C22     1.412   .     S
C14    H8      1.051   .     S
C15    H9      1.083   .     S
C16    C23     1.439   .     S
C16    C20     1.412   .     S
C17    C22     1.439   .     S
C17    C18     1.397   .     S
C19    N4      1.349   .     S
C19    N5      1.343   .     S
C19    C23     1.529   .     S
N4     C31     1.343   .     S
H10    C24     1.067   .     S
C20    C21     1.387   .     S
C20    H11     1.051   .     S
C21    H12     1.083   .     S
C23    C24     1.397   .     S
C25    N5      1.349   .     S
C25    C29     1.529   .     S
C25    N6      1.343   .     S
H13    C30     1.067   .     S
C26    H14     1.051   .     S
C26    C27     1.387   .     S
C27    H15     1.083   .     S
C29    C30     1.397   .     S
C31    N6      1.349   .     S
C31    C35     1.529   .     S
H16    C36     1.067   .     S
C32    H17     1.051   .     S
C32    C33     1.387   .     S
C33    H18     1.083   .     S
C35    C36     1.397   .     S
