data_CTF-2-AB
_audit_creation_date              2016-12-13
_audit_creation_method            'Materials Studio'
_symmetry_space_group_name_H-M    'P1'
_symmetry_Int_Tables_number       1
_symmetry_cell_setting            triclinic
loop_
_symmetry_equiv_pos_as_xyz
  x,y,z
_cell_length_a                    18.3600
_cell_length_b                    18.3600
_cell_length_c                    6.7200
_cell_angle_alpha                 90.0000
_cell_angle_beta                  90.0000
_cell_angle_gamma                 120.0000
loop_
_atom_site_label
_atom_site_type_symbol
_atom_site_fract_x
_atom_site_fract_y
_atom_site_fract_z
_atom_site_U_iso_or_equiv
_atom_site_adp_type
_atom_site_occupancy
C1     C     0.03285   0.95047   0.25000   0.00000  Uiso   1.00
C2     C     0.06972   0.89489   0.25000   0.00000  Uiso   1.00
C3     C     0.05215   0.75485   0.25000   0.00000  Uiso   1.00
C4     C     0.15745   0.92914   0.25000   0.00000  Uiso   1.00
C5     C     0.01759   0.80696   0.25000   0.00000  Uiso   1.00
N1     N     0.94823   0.91389   0.25000   0.00000  Uiso   1.00
C6     C     0.19202   0.87703   0.25000   0.00000  Uiso   1.00
C7     C     0.17445   0.73700   0.25000   0.00000  Uiso   1.00
C8     C     0.27975   0.91129   0.25000   0.00000  Uiso   1.00
C9     C     0.13989   0.78911   0.25000   0.00000  Uiso   1.00
C10    C     0.31431   0.85918   0.25000   0.00000  Uiso   1.00
N2     N     0.24775   0.63142   0.25000   0.00000  Uiso   1.00
C11    C     0.28433   0.58338   0.25000   0.00000  Uiso   1.00
C12    C     0.22875   0.49093   0.25000   0.00000  Uiso   1.00
H1     H     0.00934   0.68364   0.25000   0.00000  Uiso   1.00
H2     H     0.20082   0.00027   0.25000   0.00000  Uiso   1.00
H3     H     0.94631   0.77793   0.25000   0.00000  Uiso   1.00
H4     H     0.13163   0.66579   0.25000   0.00000  Uiso   1.00
H5     H     0.38552   0.88758   0.25000   0.00000  Uiso   1.00
H6     H     0.32311   0.98242   0.25000   0.00000  Uiso   1.00
C13    C     0.04953   0.08238   0.25000   0.00000  Uiso   1.00
C14    C     0.10511   0.17483   0.25000   0.00000  Uiso   1.00
C15    C     0.24515   0.29730   0.25000   0.00000  Uiso   1.00
C16    C     0.07086   0.22831   0.25000   0.00000  Uiso   1.00
C17    C     0.19304   0.21063   0.25000   0.00000  Uiso   1.00
N3     N     0.08611   0.03434   0.25000   0.00000  Uiso   1.00
C18    C     0.12297   0.31499   0.25000   0.00000  Uiso   1.00
C19    C     0.26300   0.43745   0.25000   0.00000  Uiso   1.00
C20    C     0.08871   0.36846   0.25000   0.00000  Uiso   1.00
C21    C     0.21089   0.35078   0.25000   0.00000  Uiso   1.00
C22    C     0.14082   0.45513   0.25000   0.00000  Uiso   1.00
N4     N     0.36858   0.61633   0.25000   0.00000  Uiso   1.00
C23    C     0.41662   0.70095   0.25000   0.00000  Uiso   1.00
C24    C     0.50907   0.73782   0.25000   0.00000  Uiso   1.00
H7     H     0.31636   0.32570   0.25000   0.00000  Uiso   1.00
H8     H     0.99973   0.20055   0.25000   0.00000  Uiso   1.00
H9     H     0.22207   0.16838   0.25000   0.00000  Uiso   1.00
H10    H     0.33421   0.46584   0.25000   0.00000  Uiso   1.00
H11    H     0.11242   0.49794   0.25000   0.00000  Uiso   1.00
H12    H     0.01758   0.34069   0.25000   0.00000  Uiso   1.00
C25    C     0.91762   0.96715   0.25000   0.00000  Uiso   1.00
C26    C     0.82517   0.93028   0.25000   0.00000  Uiso   1.00
C27    C     0.70270   0.94785   0.25000   0.00000  Uiso   1.00
C28    C     0.77169   0.84255   0.25000   0.00000  Uiso   1.00
C29    C     0.78937   0.98241   0.25000   0.00000  Uiso   1.00
N5     N     0.96566   0.05177   0.25000   0.00000  Uiso   1.00
C30    C     0.68501   0.80798   0.25000   0.00000  Uiso   1.00
C31    C     0.56255   0.82555   0.25000   0.00000  Uiso   1.00
C32    C     0.63154   0.72025   0.25000   0.00000  Uiso   1.00
C33    C     0.64922   0.86011   0.25000   0.00000  Uiso   1.00
C34    C     0.54487   0.68569   0.25000   0.00000  Uiso   1.00
N6     N     0.38367   0.75225   0.25000   0.00000  Uiso   1.00
C35    C     0.29905   0.71567   0.25000   0.00000  Uiso   1.00
C36    C     0.26218   0.77125   0.25000   0.00000  Uiso   1.00
H13    H     0.67430   0.99066   0.25000   0.00000  Uiso   1.00
H14    H     0.79945   0.79918   0.25000   0.00000  Uiso   1.00
H15    H     0.83162   0.05369   0.25000   0.00000  Uiso   1.00
H16    H     0.53416   0.86837   0.25000   0.00000  Uiso   1.00
H17    H     0.50206   0.61448   0.25000   0.00000  Uiso   1.00
H18    H     0.65931   0.67689   0.25000   0.00000  Uiso   1.00
C37    C     0.96715   0.04953   0.75000   0.00000  Uiso   1.00
C38    C     0.93028   0.10511   0.75000   0.00000  Uiso   1.00
C39    C     0.94785   0.24515   0.75000   0.00000  Uiso   1.00
C40    C     0.84255   0.07086   0.75000   0.00000  Uiso   1.00
C41    C     0.98241   0.19304   0.75000   0.00000  Uiso   1.00
N7     N     0.05177   0.08611   0.75000   0.00000  Uiso   1.00
C42    C     0.80798   0.12297   0.75000   0.00000  Uiso   1.00
C43    C     0.82555   0.26300   0.75000   0.00000  Uiso   1.00
C44    C     0.72025   0.08871   0.75000   0.00000  Uiso   1.00
C45    C     0.86011   0.21089   0.75000   0.00000  Uiso   1.00
C46    C     0.68569   0.14082   0.75000   0.00000  Uiso   1.00
N8     N     0.75225   0.36858   0.75000   0.00000  Uiso   1.00
C47    C     0.71567   0.41662   0.75000   0.00000  Uiso   1.00
C48    C     0.77125   0.50907   0.75000   0.00000  Uiso   1.00
H19    H     0.99066   0.31636   0.75000   0.00000  Uiso   1.00
H20    H     0.79918   0.99973   0.75000   0.00000  Uiso   1.00
H21    H     0.05369   0.22207   0.75000   0.00000  Uiso   1.00
H22    H     0.86837   0.33421   0.75000   0.00000  Uiso   1.00
H23    H     0.61448   0.11242   0.75000   0.00000  Uiso   1.00
H24    H     0.67689   0.01758   0.75000   0.00000  Uiso   1.00
C49    C     0.95047   0.91762   0.75000   0.00000  Uiso   1.00
C50    C     0.89489   0.82517   0.75000   0.00000  Uiso   1.00
C51    C     0.75485   0.70270   0.75000   0.00000  Uiso   1.00
C52    C     0.92914   0.77169   0.75000   0.00000  Uiso   1.00
C53    C     0.80696   0.78937   0.75000   0.00000  Uiso   1.00
N9     N     0.91389   0.96566   0.75000   0.00000  Uiso   1.00
C54    C     0.87703   0.68501   0.75000   0.00000  Uiso   1.00
C55    C     0.73700   0.56255   0.75000   0.00000  Uiso   1.00
C56    C     0.91129   0.63154   0.75000   0.00000  Uiso   1.00
C57    C     0.78911   0.64922   0.75000   0.00000  Uiso   1.00
C58    C     0.85918   0.54487   0.75000   0.00000  Uiso   1.00
N10    N     0.63142   0.38367   0.75000   0.00000  Uiso   1.00
C59    C     0.58338   0.29905   0.75000   0.00000  Uiso   1.00
C60    C     0.49093   0.26218   0.75000   0.00000  Uiso   1.00
H25    H     0.68364   0.67430   0.75000   0.00000  Uiso   1.00
H26    H     0.00027   0.79945   0.75000   0.00000  Uiso   1.00
H27    H     0.77793   0.83162   0.75000   0.00000  Uiso   1.00
H28    H     0.66579   0.53416   0.75000   0.00000  Uiso   1.00
H29    H     0.88758   0.50206   0.75000   0.00000  Uiso   1.00
H30    H     0.98242   0.65931   0.75000   0.00000  Uiso   1.00
C61    C     0.08238   0.03285   0.75000   0.00000  Uiso   1.00
C62    C     0.17483   0.06972   0.75000   0.00000  Uiso   1.00
C63    C     0.29730   0.05215   0.75000   0.00000  Uiso   1.00
C64    C     0.22831   0.15745   0.75000   0.00000  Uiso   1.00
C65    C     0.21063   0.01759   0.75000   0.00000  Uiso   1.00
N11    N     0.03434   0.94823   0.75000   0.00000  Uiso   1.00
C66    C     0.31499   0.19202   0.75000   0.00000  Uiso   1.00
C67    C     0.43745   0.17445   0.75000   0.00000  Uiso   1.00
C68    C     0.36846   0.27975   0.75000   0.00000  Uiso   1.00
C69    C     0.35078   0.13989   0.75000   0.00000  Uiso   1.00
C70    C     0.45513   0.31431   0.75000   0.00000  Uiso   1.00
N12    N     0.61633   0.24775   0.75000   0.00000  Uiso   1.00
C71    C     0.70095   0.28433   0.75000   0.00000  Uiso   1.00
C72    C     0.73782   0.22875   0.75000   0.00000  Uiso   1.00
H31    H     0.32570   0.00934   0.75000   0.00000  Uiso   1.00
H32    H     0.20055   0.20082   0.75000   0.00000  Uiso   1.00
H33    H     0.16838   0.94631   0.75000   0.00000  Uiso   1.00
H34    H     0.46584   0.13163   0.75000   0.00000  Uiso   1.00
H35    H     0.49794   0.38552   0.75000   0.00000  Uiso   1.00
H36    H     0.34069   0.32311   0.75000   0.00000  Uiso   1.00
loop_
_geom_bond_atom_site_label_1
_geom_bond_atom_site_label_2
_geom_bond_distance
_geom_bond_site_symmetry_2
_ccdc_geom_bond_type
C1     C2      1.480   .     S
C2     C4      1.406   .     S
C2     C5      1.406   .     S
C3     H1      1.140   .     S
C3     C5      1.387   .     S
C3     C9      1.406   .     S
C4     C6      1.388   .     S
N1     C25     1.350   .     S
C6     C9      1.406   .     S
C6     C8      1.406   .     S
C7     C36     1.406   .     S
C7     C9      1.387   .     S
C7     H4      1.140   .     S
C8     H6      1.140   .     S
C8     C10     1.387   .     S
C10    H5      1.140   .     S
C10    C36     1.406   .     S
N2     C11     1.350   .     S
N2     C35     1.350   .     S
C11    N4      1.350   .     S
C11    C12     1.480   .     S
C12    C22     1.406   .     S
C12    C19     1.406   .     S
C13    N3      1.350   .     S
C13    C14     1.480   .     S
C14    C17     1.406   .     S
C14    C16     1.406   .     S
C15    H7      1.140   .     S
C15    C21     1.406   .     S
C15    C17     1.387   .     S
C16    C18     1.388   .     S
C17    H9      1.140   .     S
C18    C20     1.406   .     S
C18    C21     1.406   .     S
C19    C21     1.387   .     S
C19    H10     1.140   .     S
C20    H12     1.140   .     S
C20    C22     1.387   .     S
C22    H11     1.140   .     S
N4     C23     1.350   .     S
C23    N6      1.350   .     S
C23    C24     1.480   .     S
C24    C34     1.406   .     S
C24    C31     1.406   .     S
C25    C26     1.480   .     S
C26    C29     1.406   .     S
C26    C28     1.406   .     S
C27    H13     1.140   .     S
C27    C29     1.387   .     S
C27    C33     1.406   .     S
C28    C30     1.388   .     S
C28    H14     1.140   .     S
C30    C33     1.406   .     S
C30    C32     1.406   .     S
C31    H16     1.140   .     S
C31    C33     1.387   .     S
C32    C34     1.387   .     S
C32    H18     1.140   .     S
C34    H17     1.140   .     S
N6     C35     1.350   .     S
C35    C36     1.480   .     S
C37    C38     1.480   .     S
C38    C40     1.406   .     S
C38    C41     1.406   .     S
C39    H19     1.140   .     S
C39    C45     1.406   .     S
C39    C41     1.387   .     S
C40    C42     1.388   .     S
N7     C61     1.350   .     S
C42    C45     1.406   .     S
C42    C44     1.406   .     S
C43    C72     1.406   .     S
C43    H22     1.140   .     S
C43    C45     1.387   .     S
C44    H24     1.140   .     S
C44    C46     1.387   .     S
C46    H23     1.140   .     S
C46    C72     1.406   .     S
N8     C47     1.350   .     S
N8     C71     1.350   .     S
C47    N10     1.350   .     S
C47    C48     1.480   .     S
C48    C58     1.406   .     S
C48    C55     1.406   .     S
C49    N9      1.350   .     S
C49    C50     1.480   .     S
C50    C53     1.406   .     S
C50    C52     1.406   .     S
C51    H25     1.140   .     S
C51    C53     1.387   .     S
C51    C57     1.406   .     S
C52    C54     1.388   .     S
C53    H27     1.140   .     S
C54    C57     1.406   .     S
C54    C56     1.406   .     S
C55    C57     1.387   .     S
C55    H28     1.140   .     S
C56    H30     1.140   .     S
C56    C58     1.387   .     S
C58    H29     1.140   .     S
N10    C59     1.350   .     S
C59    C60     1.480   .     S
C59    N12     1.350   .     S
C60    C70     1.406   .     S
C60    C67     1.406   .     S
C61    C62     1.480   .     S
C62    C65     1.406   .     S
C62    C64     1.406   .     S
C63    C65     1.387   .     S
C63    H31     1.140   .     S
C63    C69     1.406   .     S
C64    H32     1.140   .     S
C64    C66     1.388   .     S
C66    C69     1.406   .     S
C66    C68     1.406   .     S
C67    C69     1.387   .     S
C67    H34     1.140   .     S
C68    H36     1.140   .     S
C68    C70     1.387   .     S
C70    H35     1.140   .     S
N12    C71     1.350   .     S
C71    C72     1.480   .     S
