data_CuP-Ph_COF
_audit_creation_date              2016-12-13
_audit_creation_method            'Materials Studio'
_symmetry_space_group_name_H-M    'P1'
_symmetry_Int_Tables_number       1
_symmetry_cell_setting            triclinic
loop_
_symmetry_equiv_pos_as_xyz
  x,y,z
_cell_length_a                    38.7959
_cell_length_b                    33.0068
_cell_length_c                    6.7650
_cell_angle_alpha                 90.0000
_cell_angle_beta                  90.0000
_cell_angle_gamma                 90.0000
loop_
_atom_site_label
_atom_site_type_symbol
_atom_site_fract_x
_atom_site_fract_y
_atom_site_fract_z
_atom_site_U_iso_or_equiv
_atom_site_adp_type
_atom_site_occupancy
C1     C     0.27547   0.71855   0.50000   0.00000  Uiso   1.00
C2     C     0.77547   0.21855   0.50000   0.00000  Uiso   1.00
C3     C     0.72454   0.28145   0.50000   0.00000  Uiso   1.00
C4     C     0.22453   0.78145   0.50000   0.00000  Uiso   1.00
C5     C     0.72454   0.71855   0.50000   0.00000  Uiso   1.00
C6     C     0.22453   0.21855   0.50000   0.00000  Uiso   1.00
C7     C     0.27547   0.28145   0.50000   0.00000  Uiso   1.00
C8     C     0.77547   0.78145   0.50000   0.00000  Uiso   1.00
C9     C     0.21486   0.74011   0.50000   0.00000  Uiso   1.00
C10    C     0.71486   0.24011   0.50000   0.00000  Uiso   1.00
C11    C     0.78514   0.25989   0.50000   0.00000  Uiso   1.00
C12    C     0.28514   0.75989   0.50000   0.00000  Uiso   1.00
C13    C     0.78514   0.74011   0.50000   0.00000  Uiso   1.00
C14    C     0.28514   0.24011   0.50000   0.00000  Uiso   1.00
C15    C     0.21486   0.25989   0.50000   0.00000  Uiso   1.00
C16    C     0.71486   0.75989   0.50000   0.00000  Uiso   1.00
C17    C     0.23988   0.70920   0.50000   0.00000  Uiso   1.00
C18    C     0.73988   0.20920   0.50000   0.00000  Uiso   1.00
C19    C     0.76012   0.29080   0.50000   0.00000  Uiso   1.00
C20    C     0.26012   0.79080   0.50000   0.00000  Uiso   1.00
C21    C     0.76012   0.70920   0.50000   0.00000  Uiso   1.00
C22    C     0.26012   0.20920   0.50000   0.00000  Uiso   1.00
C23    C     0.23988   0.29080   0.50000   0.00000  Uiso   1.00
C24    C     0.73988   0.79080   0.50000   0.00000  Uiso   1.00
C25    C     0.97128   0.91267   0.50000   0.00000  Uiso   1.00
C26    C     0.47128   0.41267   0.50000   0.00000  Uiso   1.00
C27    C     0.02872   0.08733   0.50000   0.00000  Uiso   1.00
C28    C     0.52872   0.58733   0.50000   0.00000  Uiso   1.00
C29    C     0.02872   0.91267   0.50000   0.00000  Uiso   1.00
C30    C     0.52872   0.41267   0.50000   0.00000  Uiso   1.00
C31    C     0.97128   0.08733   0.50000   0.00000  Uiso   1.00
C32    C     0.47128   0.58733   0.50000   0.00000  Uiso   1.00
C33    C     0.98227   0.87239   0.50000   0.00000  Uiso   1.00
C34    C     0.48227   0.37239   0.50000   0.00000  Uiso   1.00
C35    C     0.01773   0.12761   0.50000   0.00000  Uiso   1.00
C36    C     0.51773   0.62761   0.50000   0.00000  Uiso   1.00
C37    C     0.01773   0.87239   0.50000   0.00000  Uiso   1.00
C38    C     0.51773   0.37239   0.50000   0.00000  Uiso   1.00
C39    C     0.98227   0.12761   0.50000   0.00000  Uiso   1.00
C40    C     0.48227   0.62761   0.50000   0.00000  Uiso   1.00
H41    H     0.96712   0.84705   0.50000   0.00000  Uiso   1.00
H42    H     0.46712   0.34705   0.50000   0.00000  Uiso   1.00
H43    H     0.03289   0.15295   0.50000   0.00000  Uiso   1.00
H44    H     0.53289   0.65295   0.50000   0.00000  Uiso   1.00
H45    H     0.03289   0.84705   0.50000   0.00000  Uiso   1.00
H46    H     0.53289   0.34705   0.50000   0.00000  Uiso   1.00
H47    H     0.96712   0.15295   0.50000   0.00000  Uiso   1.00
H48    H     0.46712   0.65295   0.50000   0.00000  Uiso   1.00
N49    N     0.44554   0.50000   0.50000   0.00000  Uiso   1.00
N50    N     0.94554   0.00000   0.50000   0.00000  Uiso   1.00
N51    N     0.55446   0.50000   0.50000   0.00000  Uiso   1.00
N52    N     0.05446   0.00000   0.50000   0.00000  Uiso   1.00
C53    C     0.42571   0.46625   0.50000   0.00000  Uiso   1.00
C54    C     0.92571   0.96625   0.50000   0.00000  Uiso   1.00
C55    C     0.57429   0.53375   0.50000   0.00000  Uiso   1.00
C56    C     0.07429   0.03375   0.50000   0.00000  Uiso   1.00
C57    C     0.57429   0.46625   0.50000   0.00000  Uiso   1.00
C58    C     0.07429   0.96625   0.50000   0.00000  Uiso   1.00
C59    C     0.42571   0.53375   0.50000   0.00000  Uiso   1.00
C60    C     0.92571   0.03375   0.50000   0.00000  Uiso   1.00
C61    C     0.39143   0.47916   0.50000   0.00000  Uiso   1.00
C62    C     0.89143   0.97916   0.50000   0.00000  Uiso   1.00
C63    C     0.60857   0.52084   0.50000   0.00000  Uiso   1.00
C64    C     0.10857   0.02084   0.50000   0.00000  Uiso   1.00
C65    C     0.60857   0.47916   0.50000   0.00000  Uiso   1.00
C66    C     0.10857   0.97916   0.50000   0.00000  Uiso   1.00
C67    C     0.39143   0.52084   0.50000   0.00000  Uiso   1.00
C68    C     0.89143   0.02084   0.50000   0.00000  Uiso   1.00
H69    H     0.36988   0.46136   0.50000   0.00000  Uiso   1.00
H70    H     0.86988   0.96135   0.50000   0.00000  Uiso   1.00
H71    H     0.63012   0.53864   0.50000   0.00000  Uiso   1.00
H72    H     0.13012   0.03864   0.50000   0.00000  Uiso   1.00
H73    H     0.63012   0.46136   0.50000   0.00000  Uiso   1.00
H74    H     0.13012   0.96135   0.50000   0.00000  Uiso   1.00
H75    H     0.36988   0.53864   0.50000   0.00000  Uiso   1.00
H76    H     0.86988   0.03864   0.50000   0.00000  Uiso   1.00
C77    C     0.93642   0.92527   0.50000   0.00000  Uiso   1.00
C78    C     0.43642   0.42527   0.50000   0.00000  Uiso   1.00
C79    C     0.06358   0.07473   0.50000   0.00000  Uiso   1.00
C80    C     0.56358   0.57473   0.50000   0.00000  Uiso   1.00
C81    C     0.06358   0.92527   0.50000   0.00000  Uiso   1.00
C82    C     0.56358   0.42527   0.50000   0.00000  Uiso   1.00
C83    C     0.93642   0.07473   0.50000   0.00000  Uiso   1.00
C84    C     0.43642   0.57473   0.50000   0.00000  Uiso   1.00
C85    C     0.91066   0.89499   0.50000   0.00000  Uiso   1.00
C86    C     0.41066   0.39499   0.50000   0.00000  Uiso   1.00
C87    C     0.08934   0.10501   0.50000   0.00000  Uiso   1.00
C88    C     0.58934   0.60501   0.50000   0.00000  Uiso   1.00
C89    C     0.08934   0.89499   0.50000   0.00000  Uiso   1.00
C90    C     0.58934   0.39499   0.50000   0.00000  Uiso   1.00
C91    C     0.91066   0.10501   0.50000   0.00000  Uiso   1.00
C92    C     0.41066   0.60501   0.50000   0.00000  Uiso   1.00
C93    C     0.39767   0.37969   0.68028   0.00000  Uiso   1.00
C94    C     0.89767   0.87969   0.68028   0.00000  Uiso   1.00
C95    C     0.60234   0.62031   0.68028   0.00000  Uiso   1.00
C96    C     0.10233   0.12031   0.68028   0.00000  Uiso   1.00
C97    C     0.60234   0.37969   0.31972   0.00000  Uiso   1.00
C98    C     0.10233   0.87969   0.31972   0.00000  Uiso   1.00
C99    C     0.39767   0.62031   0.31972   0.00000  Uiso   1.00
C100   C     0.89767   0.12031   0.31972   0.00000  Uiso   1.00
C101   C     0.60234   0.62031   0.31972   0.00000  Uiso   1.00
C102   C     0.10233   0.12031   0.31972   0.00000  Uiso   1.00
C103   C     0.39767   0.37969   0.31972   0.00000  Uiso   1.00
C104   C     0.89767   0.87969   0.31972   0.00000  Uiso   1.00
C105   C     0.39767   0.62031   0.68028   0.00000  Uiso   1.00
C106   C     0.89767   0.12031   0.68028   0.00000  Uiso   1.00
C107   C     0.60234   0.37969   0.68028   0.00000  Uiso   1.00
C108   C     0.10233   0.87969   0.68028   0.00000  Uiso   1.00
H109   H     0.90684   0.89037   0.81218   0.00000  Uiso   1.00
H110   H     0.40684   0.39037   0.81218   0.00000  Uiso   1.00
H111   H     0.09316   0.10963   0.81218   0.00000  Uiso   1.00
H112   H     0.59316   0.60963   0.81218   0.00000  Uiso   1.00
H113   H     0.09316   0.89037   0.18782   0.00000  Uiso   1.00
H114   H     0.59316   0.39037   0.18782   0.00000  Uiso   1.00
H115   H     0.90684   0.10963   0.18782   0.00000  Uiso   1.00
H116   H     0.40684   0.60963   0.18782   0.00000  Uiso   1.00
H117   H     0.09316   0.10963   0.18782   0.00000  Uiso   1.00
H118   H     0.59316   0.60963   0.18782   0.00000  Uiso   1.00
H119   H     0.90684   0.89037   0.18782   0.00000  Uiso   1.00
H120   H     0.40684   0.39037   0.18782   0.00000  Uiso   1.00
H121   H     0.90684   0.10963   0.81218   0.00000  Uiso   1.00
H122   H     0.40684   0.60963   0.81218   0.00000  Uiso   1.00
H123   H     0.09316   0.89037   0.81218   0.00000  Uiso   1.00
H124   H     0.59316   0.39037   0.81218   0.00000  Uiso   1.00
C125   C     0.87198   0.84954   0.67990   0.00000  Uiso   1.00
C126   C     0.37198   0.34954   0.67990   0.00000  Uiso   1.00
C127   C     0.12802   0.15046   0.67990   0.00000  Uiso   1.00
C128   C     0.62802   0.65046   0.67990   0.00000  Uiso   1.00
C129   C     0.12802   0.84954   0.32010   0.00000  Uiso   1.00
C130   C     0.62802   0.34954   0.32010   0.00000  Uiso   1.00
C131   C     0.87198   0.15046   0.32010   0.00000  Uiso   1.00
C132   C     0.37198   0.65046   0.32010   0.00000  Uiso   1.00
C133   C     0.12802   0.15046   0.32010   0.00000  Uiso   1.00
C134   C     0.62802   0.65046   0.32010   0.00000  Uiso   1.00
C135   C     0.87198   0.84954   0.32010   0.00000  Uiso   1.00
C136   C     0.37198   0.34954   0.32010   0.00000  Uiso   1.00
C137   C     0.87198   0.15046   0.67990   0.00000  Uiso   1.00
C138   C     0.37198   0.65046   0.67990   0.00000  Uiso   1.00
C139   C     0.12802   0.84954   0.67990   0.00000  Uiso   1.00
C140   C     0.62802   0.34954   0.67990   0.00000  Uiso   1.00
H141   H     0.86270   0.83848   0.81049   0.00000  Uiso   1.00
H142   H     0.36270   0.33848   0.81049   0.00000  Uiso   1.00
H143   H     0.13730   0.16152   0.81049   0.00000  Uiso   1.00
H144   H     0.63730   0.66152   0.81049   0.00000  Uiso   1.00
H145   H     0.13730   0.83848   0.18951   0.00000  Uiso   1.00
H146   H     0.63730   0.33848   0.18951   0.00000  Uiso   1.00
H147   H     0.86270   0.16152   0.18951   0.00000  Uiso   1.00
H148   H     0.36270   0.66152   0.18951   0.00000  Uiso   1.00
H149   H     0.13730   0.16152   0.18951   0.00000  Uiso   1.00
H150   H     0.63730   0.66152   0.18951   0.00000  Uiso   1.00
H151   H     0.86270   0.83848   0.18951   0.00000  Uiso   1.00
H152   H     0.36270   0.33848   0.18951   0.00000  Uiso   1.00
H153   H     0.86270   0.16152   0.81049   0.00000  Uiso   1.00
H154   H     0.36270   0.66152   0.81049   0.00000  Uiso   1.00
H155   H     0.13730   0.83848   0.81049   0.00000  Uiso   1.00
H156   H     0.63730   0.33848   0.81049   0.00000  Uiso   1.00
C157   C     0.85896   0.83450   0.50000   0.00000  Uiso   1.00
C158   C     0.35896   0.33450   0.50000   0.00000  Uiso   1.00
C159   C     0.14104   0.16550   0.50000   0.00000  Uiso   1.00
C160   C     0.64104   0.66550   0.50000   0.00000  Uiso   1.00
C161   C     0.14104   0.83450   0.50000   0.00000  Uiso   1.00
C162   C     0.64104   0.33450   0.50000   0.00000  Uiso   1.00
C163   C     0.85896   0.16550   0.50000   0.00000  Uiso   1.00
C164   C     0.35896   0.66550   0.50000   0.00000  Uiso   1.00
H165   H     0.18937   0.73212   0.50000   0.00000  Uiso   1.00
H166   H     0.68937   0.23212   0.50000   0.00000  Uiso   1.00
H167   H     0.81063   0.26788   0.50000   0.00000  Uiso   1.00
H168   H     0.31063   0.76788   0.50000   0.00000  Uiso   1.00
H169   H     0.81063   0.73212   0.50000   0.00000  Uiso   1.00
H170   H     0.31063   0.23212   0.50000   0.00000  Uiso   1.00
H171   H     0.18937   0.26788   0.50000   0.00000  Uiso   1.00
H172   H     0.68937   0.76788   0.50000   0.00000  Uiso   1.00
Cu173  Cu    0.50000   0.50000   0.50000   0.00000  Uiso   1.00
Cu174  Cu    0.00000   0.00000   0.50000   0.00000  Uiso   1.00
C175   C     0.30006   0.68709   0.50000   0.00000  Uiso   1.00
H176   H     0.29169   0.65760   0.50000   0.00000  Uiso   1.00
C177   C     0.80006   0.18709   0.50000   0.00000  Uiso   1.00
H178   H     0.79169   0.15760   0.50000   0.00000  Uiso   1.00
C179   C     0.69994   0.31291   0.50000   0.00000  Uiso   1.00
H180   H     0.70831   0.34240   0.50000   0.00000  Uiso   1.00
C181   C     0.19994   0.81291   0.50000   0.00000  Uiso   1.00
H182   H     0.20831   0.84240   0.50000   0.00000  Uiso   1.00
C183   C     0.69994   0.68709   0.50000   0.00000  Uiso   1.00
H184   H     0.70831   0.65760   0.50000   0.00000  Uiso   1.00
C185   C     0.19994   0.18709   0.50000   0.00000  Uiso   1.00
H186   H     0.20831   0.15760   0.50000   0.00000  Uiso   1.00
C187   C     0.30006   0.31291   0.50000   0.00000  Uiso   1.00
H188   H     0.29169   0.34240   0.50000   0.00000  Uiso   1.00
C189   C     0.80006   0.81291   0.50000   0.00000  Uiso   1.00
H190   H     0.79169   0.84240   0.50000   0.00000  Uiso   1.00
H191   H     0.23175   0.67968   0.50000   0.00000  Uiso   1.00
H192   H     0.73175   0.17968   0.50000   0.00000  Uiso   1.00
H193   H     0.76825   0.32032   0.50000   0.00000  Uiso   1.00
H194   H     0.26825   0.82032   0.50000   0.00000  Uiso   1.00
H195   H     0.76825   0.67968   0.50000   0.00000  Uiso   1.00
H196   H     0.26825   0.17968   0.50000   0.00000  Uiso   1.00
H197   H     0.23175   0.32032   0.50000   0.00000  Uiso   1.00
H198   H     0.73175   0.82032   0.50000   0.00000  Uiso   1.00
N199   N     0.33438   0.69439   0.50000   0.00000  Uiso   1.00
N200   N     0.83438   0.19439   0.50000   0.00000  Uiso   1.00
N201   N     0.66562   0.30561   0.50000   0.00000  Uiso   1.00
N202   N     0.16562   0.80561   0.50000   0.00000  Uiso   1.00
N203   N     0.66562   0.69439   0.50000   0.00000  Uiso   1.00
N204   N     0.16562   0.19439   0.50000   0.00000  Uiso   1.00
N205   N     0.33438   0.30561   0.50000   0.00000  Uiso   1.00
N206   N     0.83438   0.80561   0.50000   0.00000  Uiso   1.00
N207   N     0.00000   0.93598   0.50000   0.00000  Uiso   1.00
N208   N     0.50000   0.43598   0.50000   0.00000  Uiso   1.00
N209   N     0.00000   0.06402   0.50000   0.00000  Uiso   1.00
N210   N     0.50000   0.56402   0.50000   0.00000  Uiso   1.00
loop_
_geom_bond_atom_site_label_1
_geom_bond_atom_site_label_2
_geom_bond_distance
_geom_bond_site_symmetry_2
_ccdc_geom_bond_type
C1     C17     1.415   .     S
C1     C175    1.410   .     S
C1     C12     1.415   .     S
C2     C18     1.415   .     S
C2     C177    1.410   .     S
C2     C11     1.415   .     S
C3     C19     1.415   .     S
C3     C179    1.410   .     S
C3     C10     1.415   .     S
C4     C20     1.415   .     S
C4     C181    1.410   .     S
C4     C9      1.415   .     S
C5     C21     1.415   .     S
C5     C183    1.410   .     S
C5     C16     1.415   .     S
C6     C22     1.415   .     S
C6     C185    1.410   .     S
C6     C15     1.415   .     S
C7     C23     1.415   .     S
C7     C187    1.410   .     S
C7     C14     1.415   .     S
C8     C24     1.415   .     S
C8     C189    1.410   .     S
C8     C13     1.415   .     S
C9     H165    1.024   .     S
C9     C17     1.408   .     S
C10    H166    1.024   .     S
C10    C18     1.408   .     S
C11    C19     1.408   .     S
C11    H167    1.024   .     S
C12    C20     1.408   .     S
C12    H168    1.024   .     S
C13    C21     1.408   .     S
C13    H169    1.024   .     S
C14    C22     1.408   .     S
C14    H170    1.024   .     S
C15    H171    1.024   .     S
C15    C23     1.408   .     S
C16    H172    1.024   .     S
C16    C24     1.408   .     S
C17    H191    1.024   .     S
C18    H192    1.024   .     S
C19    H193    1.024   .     S
C20    H194    1.024   .     S
C21    H195    1.024   .     S
C22    H196    1.024   .     S
C23    H197    1.024   .     S
C24    H198    1.024   .     S
C25    C33     1.396   .     S
C25    C77     1.415   .     S
C26    C34     1.396   .     S
C26    C78     1.415   .     S
C26    N208    1.354   .     S
C27    C35     1.396   .     S
C27    C79     1.415   .     S
C27    N209    1.354   .     S
C28    C80     1.415   .     S
C28    N210    1.354   .     S
C28    C36     1.396   .     S
C29    C37     1.396   .     S
C29    C81     1.415   .     S
C29    N207    1.354   .     S
C30    C38     1.396   .     S
C30    C82     1.415   .     S
C30    N208    1.354   .     S
C31    C39     1.396   .     S
C31    C83     1.415   .     S
C32    C84     1.415   .     S
C32    N210    1.354   .     S
C32    C40     1.396   .     S
C33    H41     1.022   .     S
C34    H42     1.022   .     S
C34    C38     1.376   .     S
C35    H43     1.022   .     S
C36    H44     1.022   .     S
C36    C40     1.376   .     S
C37    H45     1.022   .     S
C38    H46     1.022   .     S
C39    H47     1.022   .     S
C40    H48     1.022   .     S
N49    Cu173   2.113   .     S
N49    C53     1.354   .     S
N49    C59     1.354   .     S
N50    C60     1.354   .     S
N51    Cu173   2.113   .     S
N51    C57     1.354   .     S
N51    C55     1.354   .     S
N52    Cu174   2.113   .     S
N52    C56     1.354   .     S
C53    C61     1.396   .     S
C53    C78     1.415   .     S
C54    C62     1.396   .     S
C54    C77     1.415   .     S
C55    C63     1.396   .     S
C55    C80     1.415   .     S
C56    C64     1.396   .     S
C56    C79     1.415   .     S
C57    C65     1.396   .     S
C57    C82     1.415   .     S
C58    C66     1.396   .     S
C58    C81     1.415   .     S
C59    C67     1.396   .     S
C59    C84     1.415   .     S
C60    C68     1.396   .     S
C60    C83     1.415   .     S
C61    H69     1.022   .     S
C61    C67     1.376   .     S
C62    H70     1.022   .     S
C63    H71     1.022   .     S
C63    C65     1.376   .     S
C64    H72     1.022   .     S
C65    H73     1.022   .     S
C66    H74     1.022   .     S
C67    H75     1.022   .     S
C68    H76     1.022   .     S
C77    C85     1.413   .     S
C78    C86     1.413   .     S
C79    C87     1.413   .     S
C80    C88     1.413   .     S
C81    C89     1.413   .     S
C82    C90     1.413   .     S
C83    C91     1.413   .     S
C84    C92     1.413   .     S
C85    C94     1.413   .     S
C85    C104    1.413   .     S
C86    C93     1.413   .     S
C86    C103    1.413   .     S
C87    C96     1.413   .     S
C87    C102    1.413   .     S
C88    C95     1.413   .     S
C88    C101    1.413   .     S
C89    C108    1.413   .     S
C89    C98     1.413   .     S
C90    C107    1.413   .     S
C90    C97     1.413   .     S
C91    C106    1.413   .     S
C91    C100    1.413   .     S
C92    C105    1.413   .     S
C92    C99     1.413   .     S
C93    H110    1.023   .     S
C93    C126    1.408   .     S
C94    H109    1.023   .     S
C94    C125    1.408   .     S
C95    H112    1.023   .     S
C95    C128    1.408   .     S
C96    H111    1.023   .     S
C96    C127    1.408   .     S
C97    H114    1.023   .     S
C97    C130    1.408   .     S
C98    H113    1.023   .     S
C98    C129    1.408   .     S
C99    H116    1.023   .     S
C99    C132    1.408   .     S
C100   H115    1.023   .     S
C100   C131    1.408   .     S
C101   H118    1.023   .     S
C101   C134    1.408   .     S
C102   H117    1.023   .     S
C102   C133    1.408   .     S
C103   H120    1.023   .     S
C103   C136    1.408   .     S
C104   H119    1.023   .     S
C104   C135    1.408   .     S
C105   H122    1.023   .     S
C105   C138    1.408   .     S
C106   H121    1.023   .     S
C106   C137    1.408   .     S
C107   H124    1.023   .     S
C107   C140    1.408   .     S
C108   H123    1.023   .     S
C108   C139    1.408   .     S
C125   H141    1.021   .     S
C125   C157    1.408   .     S
C126   H142    1.021   .     S
C126   C158    1.408   .     S
C127   H143    1.021   .     S
C127   C159    1.408   .     S
C128   H144    1.021   .     S
C128   C160    1.408   .     S
C129   H145    1.021   .     S
C129   C161    1.408   .     S
C130   H146    1.021   .     S
C130   C162    1.408   .     S
C131   H147    1.021   .     S
C131   C163    1.408   .     S
C132   H148    1.021   .     S
C132   C164    1.408   .     S
C133   H149    1.021   .     S
C133   C159    1.408   .     S
C134   H150    1.021   .     S
C134   C160    1.408   .     S
C135   H151    1.021   .     S
C135   C157    1.408   .     S
C136   H152    1.021   .     S
C136   C158    1.408   .     S
C137   H153    1.021   .     S
C137   C163    1.408   .     S
C138   H154    1.021   .     S
C138   C164    1.408   .     S
C139   H155    1.021   .     S
C139   C161    1.408   .     S
C140   H156    1.021   .     S
C140   C162    1.408   .     S
C157   N206    1.349   .     S
C158   N205    1.349   .     S
C159   N204    1.349   .     S
C160   N203    1.349   .     S
C161   N202    1.349   .     S
C162   N201    1.349   .     S
C163   N200    1.349   .     S
C164   N199    1.349   .     S
Cu173  N208    2.113   .     S
Cu173  N210    2.113   .     S
Cu174  N209    2.113   .     S
C175   N199    1.353   .     S
C175   H176    1.026   .     S
C177   N200    1.353   .     S
C177   H178    1.026   .     S
C179   N201    1.353   .     S
C179   H180    1.026   .     S
C181   H182    1.026   .     S
C181   N202    1.353   .     S
C183   N203    1.353   .     S
C183   H184    1.026   .     S
C185   N204    1.353   .     S
C185   H186    1.026   .     S
C187   N205    1.353   .     S
C187   H188    1.026   .     S
C189   H190    1.026   .     S
C189   N206    1.353   .     S
