data_CuP-TFPh
_audit_creation_date              2016-12-13
_audit_creation_method            'Materials Studio'
_symmetry_space_group_name_H-M    'P1'
_symmetry_Int_Tables_number       1
_symmetry_cell_setting            triclinic
loop_
_symmetry_equiv_pos_as_xyz
  x,y,z
_cell_length_a                    38.7832
_cell_length_b                    33.3574
_cell_length_c                    6.9426
_cell_angle_alpha                 90.0000
_cell_angle_beta                  90.0000
_cell_angle_gamma                 90.0000
loop_
_atom_site_label
_atom_site_type_symbol
_atom_site_fract_x
_atom_site_fract_y
_atom_site_fract_z
_atom_site_U_iso_or_equiv
_atom_site_adp_type
_atom_site_occupancy
C1     C     0.27606   0.71886   0.50000   0.00000  Uiso   1.00
C2     C     0.77606   0.21886   0.50000   0.00000  Uiso   1.00
C3     C     0.72394   0.28114   0.50000   0.00000  Uiso   1.00
C4     C     0.22394   0.78114   0.50000   0.00000  Uiso   1.00
C5     C     0.72394   0.71886   0.50000   0.00000  Uiso   1.00
C6     C     0.22394   0.21886   0.50000   0.00000  Uiso   1.00
C7     C     0.27606   0.28114   0.50000   0.00000  Uiso   1.00
C8     C     0.77606   0.78114   0.50000   0.00000  Uiso   1.00
C9     C     0.21471   0.74004   0.50000   0.00000  Uiso   1.00
C10    C     0.71471   0.24004   0.50000   0.00000  Uiso   1.00
C11    C     0.78529   0.25996   0.50000   0.00000  Uiso   1.00
C12    C     0.28529   0.75996   0.50000   0.00000  Uiso   1.00
C13    C     0.78529   0.74004   0.50000   0.00000  Uiso   1.00
C14    C     0.28529   0.24004   0.50000   0.00000  Uiso   1.00
C15    C     0.21471   0.25996   0.50000   0.00000  Uiso   1.00
C16    C     0.71471   0.75996   0.50000   0.00000  Uiso   1.00
C17    C     0.24044   0.70955   0.50000   0.00000  Uiso   1.00
C18    C     0.74044   0.20955   0.50000   0.00000  Uiso   1.00
C19    C     0.75956   0.29045   0.50000   0.00000  Uiso   1.00
C20    C     0.25956   0.79045   0.50000   0.00000  Uiso   1.00
C21    C     0.75956   0.70955   0.50000   0.00000  Uiso   1.00
C22    C     0.25956   0.20955   0.50000   0.00000  Uiso   1.00
C23    C     0.24044   0.29045   0.50000   0.00000  Uiso   1.00
C24    C     0.74044   0.79045   0.50000   0.00000  Uiso   1.00
C25    C     0.97127   0.91357   0.50000   0.00000  Uiso   1.00
C26    C     0.47127   0.41357   0.50000   0.00000  Uiso   1.00
C27    C     0.02873   0.08643   0.50000   0.00000  Uiso   1.00
C28    C     0.52873   0.58643   0.50000   0.00000  Uiso   1.00
C29    C     0.02873   0.91357   0.50000   0.00000  Uiso   1.00
C30    C     0.52873   0.41357   0.50000   0.00000  Uiso   1.00
C31    C     0.97127   0.08643   0.50000   0.00000  Uiso   1.00
C32    C     0.47127   0.58643   0.50000   0.00000  Uiso   1.00
C33    C     0.98226   0.87371   0.50000   0.00000  Uiso   1.00
C34    C     0.48226   0.37371   0.50000   0.00000  Uiso   1.00
C35    C     0.01774   0.12629   0.50000   0.00000  Uiso   1.00
C36    C     0.51774   0.62629   0.50000   0.00000  Uiso   1.00
C37    C     0.01774   0.87371   0.50000   0.00000  Uiso   1.00
C38    C     0.51774   0.37371   0.50000   0.00000  Uiso   1.00
C39    C     0.98226   0.12629   0.50000   0.00000  Uiso   1.00
C40    C     0.48226   0.62629   0.50000   0.00000  Uiso   1.00
H41    H     0.96710   0.84861   0.50000   0.00000  Uiso   1.00
H42    H     0.46710   0.34861   0.50000   0.00000  Uiso   1.00
H43    H     0.03291   0.15139   0.50000   0.00000  Uiso   1.00
H44    H     0.53291   0.65139   0.50000   0.00000  Uiso   1.00
H45    H     0.03291   0.84861   0.50000   0.00000  Uiso   1.00
H46    H     0.53291   0.34861   0.50000   0.00000  Uiso   1.00
H47    H     0.96710   0.15139   0.50000   0.00000  Uiso   1.00
H48    H     0.46710   0.65139   0.50000   0.00000  Uiso   1.00
N49    N     0.44549   0.50000   0.50000   0.00000  Uiso   1.00
N50    N     0.94549   0.00000   0.50000   0.00000  Uiso   1.00
N51    N     0.55451   0.50000   0.50000   0.00000  Uiso   1.00
N52    N     0.05451   0.00000   0.50000   0.00000  Uiso   1.00
C53    C     0.42566   0.46659   0.50000   0.00000  Uiso   1.00
C54    C     0.92566   0.96659   0.50000   0.00000  Uiso   1.00
C55    C     0.57434   0.53340   0.50000   0.00000  Uiso   1.00
C56    C     0.07434   0.03341   0.50000   0.00000  Uiso   1.00
C57    C     0.57434   0.46659   0.50000   0.00000  Uiso   1.00
C58    C     0.07434   0.96659   0.50000   0.00000  Uiso   1.00
C59    C     0.42566   0.53340   0.50000   0.00000  Uiso   1.00
C60    C     0.92566   0.03341   0.50000   0.00000  Uiso   1.00
C61    C     0.39137   0.47937   0.50000   0.00000  Uiso   1.00
C62    C     0.89137   0.97937   0.50000   0.00000  Uiso   1.00
C63    C     0.60863   0.52063   0.50000   0.00000  Uiso   1.00
C64    C     0.10863   0.02063   0.50000   0.00000  Uiso   1.00
C65    C     0.60863   0.47937   0.50000   0.00000  Uiso   1.00
C66    C     0.10863   0.97937   0.50000   0.00000  Uiso   1.00
C67    C     0.39137   0.52063   0.50000   0.00000  Uiso   1.00
C68    C     0.89137   0.02063   0.50000   0.00000  Uiso   1.00
H69    H     0.36980   0.46175   0.50000   0.00000  Uiso   1.00
H70    H     0.86980   0.96175   0.50000   0.00000  Uiso   1.00
H71    H     0.63021   0.53825   0.50000   0.00000  Uiso   1.00
H72    H     0.13021   0.03825   0.50000   0.00000  Uiso   1.00
H73    H     0.63021   0.46175   0.50000   0.00000  Uiso   1.00
H74    H     0.13021   0.96175   0.50000   0.00000  Uiso   1.00
H75    H     0.36980   0.53825   0.50000   0.00000  Uiso   1.00
H76    H     0.86980   0.03825   0.50000   0.00000  Uiso   1.00
C77    C     0.93639   0.92605   0.50000   0.00000  Uiso   1.00
C78    C     0.43639   0.42605   0.50000   0.00000  Uiso   1.00
C79    C     0.06361   0.07395   0.50000   0.00000  Uiso   1.00
C80    C     0.56361   0.57395   0.50000   0.00000  Uiso   1.00
C81    C     0.06361   0.92605   0.50000   0.00000  Uiso   1.00
C82    C     0.56361   0.42605   0.50000   0.00000  Uiso   1.00
C83    C     0.93639   0.07395   0.50000   0.00000  Uiso   1.00
C84    C     0.43639   0.57395   0.50000   0.00000  Uiso   1.00
C85    C     0.91065   0.89607   0.50000   0.00000  Uiso   1.00
C86    C     0.41065   0.39607   0.50000   0.00000  Uiso   1.00
C87    C     0.08935   0.10393   0.50000   0.00000  Uiso   1.00
C88    C     0.58936   0.60393   0.50000   0.00000  Uiso   1.00
C89    C     0.08935   0.89607   0.50000   0.00000  Uiso   1.00
C90    C     0.58936   0.39607   0.50000   0.00000  Uiso   1.00
C91    C     0.91065   0.10393   0.50000   0.00000  Uiso   1.00
C92    C     0.41065   0.60393   0.50000   0.00000  Uiso   1.00
C93    C     0.39774   0.38084   0.67577   0.00000  Uiso   1.00
C94    C     0.89774   0.88084   0.67577   0.00000  Uiso   1.00
C95    C     0.60227   0.61916   0.67577   0.00000  Uiso   1.00
C96    C     0.10227   0.11916   0.67577   0.00000  Uiso   1.00
C97    C     0.60227   0.38084   0.32424   0.00000  Uiso   1.00
C98    C     0.10227   0.88084   0.32424   0.00000  Uiso   1.00
C99    C     0.39774   0.61916   0.32424   0.00000  Uiso   1.00
C100   C     0.89774   0.11916   0.32424   0.00000  Uiso   1.00
C101   C     0.60227   0.61916   0.32424   0.00000  Uiso   1.00
C102   C     0.10227   0.11916   0.32424   0.00000  Uiso   1.00
C103   C     0.39774   0.38084   0.32424   0.00000  Uiso   1.00
C104   C     0.89774   0.88084   0.32424   0.00000  Uiso   1.00
C105   C     0.39774   0.61916   0.67577   0.00000  Uiso   1.00
C106   C     0.89774   0.11916   0.67577   0.00000  Uiso   1.00
C107   C     0.60227   0.38084   0.67577   0.00000  Uiso   1.00
C108   C     0.10227   0.88084   0.67577   0.00000  Uiso   1.00
H109   H     0.90688   0.89144   0.80445   0.00000  Uiso   1.00
H110   H     0.40688   0.39144   0.80445   0.00000  Uiso   1.00
H111   H     0.09312   0.10856   0.80445   0.00000  Uiso   1.00
H112   H     0.59312   0.60856   0.80445   0.00000  Uiso   1.00
H113   H     0.09312   0.89144   0.19555   0.00000  Uiso   1.00
H114   H     0.59312   0.39144   0.19555   0.00000  Uiso   1.00
H115   H     0.90688   0.10856   0.19555   0.00000  Uiso   1.00
H116   H     0.40688   0.60856   0.19555   0.00000  Uiso   1.00
H117   H     0.09312   0.10856   0.19555   0.00000  Uiso   1.00
H118   H     0.59312   0.60856   0.19555   0.00000  Uiso   1.00
H119   H     0.90688   0.89144   0.19555   0.00000  Uiso   1.00
H120   H     0.40688   0.39144   0.19555   0.00000  Uiso   1.00
H121   H     0.90688   0.10856   0.80445   0.00000  Uiso   1.00
H122   H     0.40688   0.60856   0.80445   0.00000  Uiso   1.00
H123   H     0.09312   0.89144   0.80445   0.00000  Uiso   1.00
H124   H     0.59312   0.39144   0.80445   0.00000  Uiso   1.00
C125   C     0.87225   0.85076   0.67538   0.00000  Uiso   1.00
C126   C     0.37224   0.35076   0.67538   0.00000  Uiso   1.00
C127   C     0.12776   0.14924   0.67538   0.00000  Uiso   1.00
C128   C     0.62776   0.64924   0.67538   0.00000  Uiso   1.00
C129   C     0.12776   0.85076   0.32462   0.00000  Uiso   1.00
C130   C     0.62776   0.35076   0.32462   0.00000  Uiso   1.00
C131   C     0.87225   0.14924   0.32462   0.00000  Uiso   1.00
C132   C     0.37224   0.64924   0.32462   0.00000  Uiso   1.00
C133   C     0.12776   0.14924   0.32462   0.00000  Uiso   1.00
C134   C     0.62776   0.64924   0.32462   0.00000  Uiso   1.00
C135   C     0.87225   0.85076   0.32462   0.00000  Uiso   1.00
C136   C     0.37224   0.35076   0.32462   0.00000  Uiso   1.00
C137   C     0.87225   0.14924   0.67538   0.00000  Uiso   1.00
C138   C     0.37224   0.64924   0.67538   0.00000  Uiso   1.00
C139   C     0.12776   0.85076   0.67538   0.00000  Uiso   1.00
C140   C     0.62776   0.35076   0.67538   0.00000  Uiso   1.00
H141   H     0.86311   0.83956   0.80263   0.00000  Uiso   1.00
H142   H     0.36311   0.33956   0.80263   0.00000  Uiso   1.00
H143   H     0.13689   0.16044   0.80263   0.00000  Uiso   1.00
H144   H     0.63689   0.66044   0.80263   0.00000  Uiso   1.00
H145   H     0.13689   0.83956   0.19737   0.00000  Uiso   1.00
H146   H     0.63689   0.33956   0.19737   0.00000  Uiso   1.00
H147   H     0.86311   0.16044   0.19737   0.00000  Uiso   1.00
H148   H     0.36311   0.66044   0.19737   0.00000  Uiso   1.00
H149   H     0.13689   0.16044   0.19737   0.00000  Uiso   1.00
H150   H     0.63689   0.66044   0.19737   0.00000  Uiso   1.00
H151   H     0.86311   0.83956   0.19737   0.00000  Uiso   1.00
H152   H     0.36311   0.33956   0.19737   0.00000  Uiso   1.00
H153   H     0.86311   0.16044   0.80263   0.00000  Uiso   1.00
H154   H     0.36311   0.66044   0.80263   0.00000  Uiso   1.00
H155   H     0.13689   0.83956   0.80263   0.00000  Uiso   1.00
H156   H     0.63689   0.33956   0.80263   0.00000  Uiso   1.00
C157   C     0.85931   0.83580   0.50000   0.00000  Uiso   1.00
C158   C     0.35931   0.33580   0.50000   0.00000  Uiso   1.00
C159   C     0.14069   0.16420   0.50000   0.00000  Uiso   1.00
C160   C     0.64069   0.66420   0.50000   0.00000  Uiso   1.00
C161   C     0.14069   0.83580   0.50000   0.00000  Uiso   1.00
C162   C     0.64069   0.33580   0.50000   0.00000  Uiso   1.00
C163   C     0.85931   0.16420   0.50000   0.00000  Uiso   1.00
C164   C     0.35931   0.66420   0.50000   0.00000  Uiso   1.00
F165   F     0.18205   0.73000   0.50000   0.00000  Uiso   1.00
F166   F     0.68205   0.23000   0.50000   0.00000  Uiso   1.00
F167   F     0.81795   0.27000   0.50000   0.00000  Uiso   1.00
F168   F     0.31795   0.77000   0.50000   0.00000  Uiso   1.00
F169   F     0.81795   0.73000   0.50000   0.00000  Uiso   1.00
F170   F     0.31795   0.23000   0.50000   0.00000  Uiso   1.00
F171   F     0.18205   0.27000   0.50000   0.00000  Uiso   1.00
F172   F     0.68205   0.77000   0.50000   0.00000  Uiso   1.00
Cu173  Cu    0.50000   0.50000   0.50000   0.00000  Uiso   1.00
Cu174  Cu    0.00000   0.00000   0.50000   0.00000  Uiso   1.00
C175   C     0.30057   0.68723   0.50000   0.00000  Uiso   1.00
H176   H     0.29212   0.65798   0.50000   0.00000  Uiso   1.00
C177   C     0.80057   0.18723   0.50000   0.00000  Uiso   1.00
H178   H     0.79212   0.15798   0.50000   0.00000  Uiso   1.00
C179   C     0.69943   0.31277   0.50000   0.00000  Uiso   1.00
H180   H     0.70788   0.34202   0.50000   0.00000  Uiso   1.00
C181   C     0.19943   0.81277   0.50000   0.00000  Uiso   1.00
H182   H     0.20788   0.84202   0.50000   0.00000  Uiso   1.00
C183   C     0.69943   0.68723   0.50000   0.00000  Uiso   1.00
H184   H     0.70788   0.65798   0.50000   0.00000  Uiso   1.00
C185   C     0.19943   0.18723   0.50000   0.00000  Uiso   1.00
H186   H     0.20788   0.15798   0.50000   0.00000  Uiso   1.00
C187   C     0.30057   0.31277   0.50000   0.00000  Uiso   1.00
H188   H     0.29212   0.34202   0.50000   0.00000  Uiso   1.00
C189   C     0.80057   0.81277   0.50000   0.00000  Uiso   1.00
H190   H     0.79212   0.84202   0.50000   0.00000  Uiso   1.00
F191   F     0.23198   0.67136   0.50000   0.00000  Uiso   1.00
F192   F     0.73198   0.17137   0.50000   0.00000  Uiso   1.00
F193   F     0.76802   0.32863   0.50000   0.00000  Uiso   1.00
F194   F     0.26802   0.82863   0.50000   0.00000  Uiso   1.00
F195   F     0.76802   0.67136   0.50000   0.00000  Uiso   1.00
F196   F     0.26802   0.17137   0.50000   0.00000  Uiso   1.00
F197   F     0.23198   0.32863   0.50000   0.00000  Uiso   1.00
F198   F     0.73198   0.82863   0.50000   0.00000  Uiso   1.00
N199   N     0.33502   0.69308   0.50000   0.00000  Uiso   1.00
N200   N     0.83502   0.19308   0.50000   0.00000  Uiso   1.00
N201   N     0.66498   0.30692   0.50000   0.00000  Uiso   1.00
N202   N     0.16498   0.80692   0.50000   0.00000  Uiso   1.00
N203   N     0.66498   0.69308   0.50000   0.00000  Uiso   1.00
N204   N     0.16498   0.19308   0.50000   0.00000  Uiso   1.00
N205   N     0.33502   0.30692   0.50000   0.00000  Uiso   1.00
N206   N     0.83502   0.80692   0.50000   0.00000  Uiso   1.00
N207   N     0.00000   0.93664   0.50000   0.00000  Uiso   1.00
N208   N     0.50000   0.43664   0.50000   0.00000  Uiso   1.00
N209   N     0.00000   0.06336   0.50000   0.00000  Uiso   1.00
N210   N     0.50000   0.56336   0.50000   0.00000  Uiso   1.00
loop_
_geom_bond_atom_site_label_1
_geom_bond_atom_site_label_2
_geom_bond_distance
_geom_bond_site_symmetry_2
_ccdc_geom_bond_type
C1     C17     1.416   .     S
C1     C175    1.420   .     S
C1     C12     1.417   .     S
C2     C18     1.416   .     S
C2     C177    1.420   .     S
C2     C11     1.417   .     S
C3     C19     1.416   .     S
C3     C179    1.420   .     S
C3     C10     1.417   .     S
C4     C20     1.416   .     S
C4     C181    1.420   .     S
C4     C9      1.417   .     S
C5     C21     1.416   .     S
C5     C183    1.420   .     S
C5     C16     1.417   .     S
C6     C22     1.416   .     S
C6     C185    1.420   .     S
C6     C15     1.417   .     S
C7     C23     1.416   .     S
C7     C187    1.420   .     S
C7     C14     1.417   .     S
C8     C24     1.416   .     S
C8     C189    1.420   .     S
C8     C13     1.417   .     S
C9     F165    1.310   .     S
C9     C17     1.425   .     S
C10    F166    1.310   .     S
C10    C18     1.425   .     S
C11    C19     1.425   .     S
C11    F167    1.310   .     S
C12    C20     1.425   .     S
C12    F168    1.310   .     S
C13    C21     1.425   .     S
C13    F169    1.310   .     S
C14    C22     1.425   .     S
C14    F170    1.310   .     S
C15    F171    1.310   .     S
C15    C23     1.425   .     S
C16    F172    1.310   .     S
C16    C24     1.425   .     S
C17    F191    1.315   .     S
C18    F192    1.315   .     S
C19    F193    1.315   .     S
C20    F194    1.315   .     S
C21    F195    1.315   .     S
C22    F196    1.315   .     S
C23    F197    1.315   .     S
C24    F198    1.315   .     S
C25    C33     1.396   .     S
C25    C77     1.415   .     S
C26    C34     1.396   .     S
C26    C78     1.415   .     S
C26    N208    1.354   .     S
C27    C35     1.396   .     S
C27    C79     1.415   .     S
C27    N209    1.354   .     S
C28    C36     1.396   .     S
C28    C80     1.415   .     S
C28    N210    1.354   .     S
C29    C37     1.396   .     S
C29    C81     1.415   .     S
C29    N207    1.354   .     S
C30    C38     1.396   .     S
C30    C82     1.415   .     S
C30    N208    1.354   .     S
C31    C39     1.396   .     S
C31    C83     1.415   .     S
C32    C40     1.396   .     S
C32    C84     1.415   .     S
C32    N210    1.354   .     S
C33    H41     1.023   .     S
C34    H42     1.023   .     S
C34    C38     1.376   .     S
C35    H43     1.023   .     S
C36    H44     1.023   .     S
C36    C40     1.376   .     S
C37    H45     1.023   .     S
C38    H46     1.023   .     S
C39    H47     1.023   .     S
C40    H48     1.023   .     S
N49    Cu173   2.114   .     S
N49    C53     1.354   .     S
N49    C59     1.354   .     S
N50    C60     1.354   .     S
N51    Cu173   2.114   .     S
N51    C57     1.354   .     S
N51    C55     1.354   .     S
N52    Cu174   2.114   .     S
N52    C56     1.354   .     S
C53    C61     1.396   .     S
C53    C78     1.415   .     S
C54    C62     1.396   .     S
C54    C77     1.415   .     S
C55    C63     1.396   .     S
C55    C80     1.415   .     S
C56    C64     1.396   .     S
C56    C79     1.415   .     S
C57    C65     1.396   .     S
C57    C82     1.415   .     S
C58    C66     1.396   .     S
C58    C81     1.415   .     S
C59    C67     1.396   .     S
C59    C84     1.415   .     S
C60    C68     1.396   .     S
C60    C83     1.415   .     S
C61    H69     1.023   .     S
C61    C67     1.376   .     S
C62    H70     1.023   .     S
C63    H71     1.023   .     S
C63    C65     1.376   .     S
C64    H72     1.023   .     S
C65    H73     1.023   .     S
C66    H74     1.023   .     S
C67    H75     1.023   .     S
C68    H76     1.023   .     S
C77    C85     1.413   .     S
C78    C86     1.413   .     S
C79    C87     1.413   .     S
C80    C88     1.413   .     S
C81    C89     1.413   .     S
C82    C90     1.413   .     S
C83    C91     1.413   .     S
C84    C92     1.413   .     S
C85    C94     1.413   .     S
C85    C104    1.413   .     S
C86    C93     1.413   .     S
C86    C103    1.413   .     S
C87    C96     1.413   .     S
C87    C102    1.413   .     S
C88    C95     1.413   .     S
C88    C101    1.413   .     S
C89    C108    1.413   .     S
C89    C98     1.413   .     S
C90    C107    1.413   .     S
C90    C97     1.413   .     S
C91    C106    1.413   .     S
C91    C100    1.413   .     S
C92    C105    1.413   .     S
C92    C99     1.413   .     S
C93    C126    1.409   .     S
C93    H110    1.024   .     S
C94    C125    1.409   .     S
C94    H109    1.024   .     S
C95    C128    1.409   .     S
C95    H112    1.024   .     S
C96    C127    1.409   .     S
C96    H111    1.024   .     S
C97    H114    1.024   .     S
C97    C130    1.409   .     S
C98    H113    1.024   .     S
C98    C129    1.409   .     S
C99    H116    1.024   .     S
C99    C132    1.409   .     S
C100   H115    1.024   .     S
C100   C131    1.409   .     S
C101   H118    1.024   .     S
C101   C134    1.409   .     S
C102   H117    1.024   .     S
C102   C133    1.409   .     S
C103   H120    1.024   .     S
C103   C136    1.409   .     S
C104   H119    1.024   .     S
C104   C135    1.409   .     S
C105   C138    1.409   .     S
C105   H122    1.024   .     S
C106   C137    1.409   .     S
C106   H121    1.024   .     S
C107   C140    1.409   .     S
C107   H124    1.024   .     S
C108   C139    1.409   .     S
C108   H123    1.024   .     S
C125   C157    1.408   .     S
C125   H141    1.022   .     S
C126   C158    1.408   .     S
C126   H142    1.022   .     S
C127   C159    1.408   .     S
C127   H143    1.022   .     S
C128   C160    1.408   .     S
C128   H144    1.022   .     S
C129   H145    1.022   .     S
C129   C161    1.408   .     S
C130   H146    1.022   .     S
C130   C162    1.408   .     S
C131   H147    1.022   .     S
C131   C163    1.408   .     S
C132   H148    1.022   .     S
C132   C164    1.408   .     S
C133   H149    1.022   .     S
C133   C159    1.408   .     S
C134   H150    1.022   .     S
C134   C160    1.408   .     S
C135   H151    1.022   .     S
C135   C157    1.408   .     S
C136   H152    1.022   .     S
C136   C158    1.408   .     S
C137   C163    1.408   .     S
C137   H153    1.022   .     S
C138   C164    1.408   .     S
C138   H154    1.022   .     S
C139   C161    1.408   .     S
C139   H155    1.022   .     S
C140   C162    1.408   .     S
C140   H156    1.022   .     S
C157   N206    1.347   .     S
C158   N205    1.347   .     S
C159   N204    1.347   .     S
C160   N203    1.347   .     S
C161   N202    1.347   .     S
C162   N201    1.347   .     S
C163   N200    1.347   .     S
C164   N199    1.347   .     S
Cu173  N208    2.114   .     S
Cu173  N210    2.114   .     S
Cu174  N209    2.114   .     S
C175   N199    1.351   .     S
C175   H176    1.029   .     S
C177   N200    1.351   .     S
C177   H178    1.029   .     S
C179   N201    1.351   .     S
C179   H180    1.029   .     S
C181   N202    1.351   .     S
C181   H182    1.029   .     S
C183   N203    1.351   .     S
C183   H184    1.029   .     S
C185   N204    1.351   .     S
C185   H186    1.029   .     S
C187   N205    1.351   .     S
C187   H188    1.029   .     S
C189   N206    1.351   .     S
C189   H190    1.029   .     S
