data_DA-COF
_audit_creation_date              2016-12-13
_audit_creation_method            'Materials Studio'
_symmetry_space_group_name_H-M    'P1'
_symmetry_Int_Tables_number       1
_symmetry_cell_setting            triclinic
loop_
_symmetry_equiv_pos_as_xyz
  x,y,z
_cell_length_a                    30.1473
_cell_length_b                    30.1473
_cell_length_c                    3.5558
_cell_angle_alpha                 90.0000
_cell_angle_beta                  90.0000
_cell_angle_gamma                 120.0000
loop_
_atom_site_label
_atom_site_type_symbol
_atom_site_fract_x
_atom_site_fract_y
_atom_site_fract_z
_atom_site_U_iso_or_equiv
_atom_site_adp_type
_atom_site_occupancy
C1     C     0.71382   0.33243   0.50001   0.00000  Uiso   1.00
C2     C     0.71461   0.38062   0.50001   0.00000  Uiso   1.00
C3     C     0.76324   0.42687   0.50001   0.00000  Uiso   1.00
C4     C     0.80876   0.42558   0.50001   0.00000  Uiso   1.00
C5     C     0.80796   0.37935   0.50001   0.00000  Uiso   1.00
C6     C     0.76170   0.33327   0.50001   0.00000  Uiso   1.00
C7     C     0.66757   0.38138   0.50001   0.00000  Uiso   1.00
C8     C     0.61938   0.33399   0.50001   0.00000  Uiso   1.00
C9     C     0.57313   0.33637   0.50001   0.00000  Uiso   1.00
C10    C     0.57442   0.38318   0.50001   0.00000  Uiso   1.00
C11    C     0.62065   0.42861   0.50001   0.00000  Uiso   1.00
C12    C     0.66673   0.42843   0.50001   0.00000  Uiso   1.00
C13    C     0.61862   0.28618   0.50001   0.00000  Uiso   1.00
C14    C     0.66601   0.28539   0.50001   0.00000  Uiso   1.00
C15    C     0.66363   0.23676   0.50001   0.00000  Uiso   1.00
C16    C     0.61682   0.19124   0.50001   0.00000  Uiso   1.00
C17    C     0.57139   0.19204   0.50001   0.00000  Uiso   1.00
C18    C     0.57157   0.23830   0.50001   0.00000  Uiso   1.00
C19    C     0.33243   0.71382   0.50001   0.00000  Uiso   1.00
C20    C     0.38062   0.71461   0.50001   0.00000  Uiso   1.00
C21    C     0.42687   0.76324   0.50001   0.00000  Uiso   1.00
C22    C     0.42558   0.80876   0.50001   0.00000  Uiso   1.00
C23    C     0.37935   0.80796   0.50001   0.00000  Uiso   1.00
C24    C     0.33327   0.76170   0.50001   0.00000  Uiso   1.00
C25    C     0.38138   0.66757   0.50001   0.00000  Uiso   1.00
C26    C     0.33399   0.61938   0.50001   0.00000  Uiso   1.00
C27    C     0.33637   0.57313   0.50001   0.00000  Uiso   1.00
C28    C     0.38318   0.57442   0.50001   0.00000  Uiso   1.00
C29    C     0.42861   0.62065   0.50001   0.00000  Uiso   1.00
C30    C     0.42843   0.66673   0.50001   0.00000  Uiso   1.00
C31    C     0.28618   0.61862   0.50001   0.00000  Uiso   1.00
C32    C     0.28539   0.66601   0.50001   0.00000  Uiso   1.00
C33    C     0.23676   0.66363   0.50001   0.00000  Uiso   1.00
C34    C     0.19124   0.61682   0.50001   0.00000  Uiso   1.00
C35    C     0.19204   0.57139   0.50001   0.00000  Uiso   1.00
C36    C     0.23830   0.57157   0.50001   0.00000  Uiso   1.00
O37    O     0.85574   0.38655   0.50001   0.00000  Uiso   1.00
O38    O     0.61345   0.46919   0.50001   0.00000  Uiso   1.00
O39    O     0.53081   0.14426   0.50001   0.00000  Uiso   1.00
O40    O     0.38655   0.85574   0.50001   0.00000  Uiso   1.00
O41    O     0.46919   0.61345   0.50001   0.00000  Uiso   1.00
O42    O     0.14426   0.53081   0.50001   0.00000  Uiso   1.00
B43    B     0.88831   0.44141   0.50001   0.00000  Uiso   1.00
B44    B     0.55859   0.44690   0.50001   0.00000  Uiso   1.00
B45    B     0.55310   0.11169   0.50001   0.00000  Uiso   1.00
B46    B     0.44141   0.88831   0.50001   0.00000  Uiso   1.00
B47    B     0.44690   0.55859   0.50001   0.00000  Uiso   1.00
B48    B     0.11169   0.55310   0.50001   0.00000  Uiso   1.00
O49    O     0.85713   0.46531   0.50001   0.00000  Uiso   1.00
O50    O     0.53469   0.39182   0.50001   0.00000  Uiso   1.00
O51    O     0.60818   0.14287   0.50001   0.00000  Uiso   1.00
O52    O     0.46531   0.85713   0.50001   0.00000  Uiso   1.00
O53    O     0.39182   0.53469   0.50001   0.00000  Uiso   1.00
O54    O     0.14287   0.60818   0.50001   0.00000  Uiso   1.00
H55    H     0.76796   0.46261   0.50001   0.00000  Uiso   1.00
H56    H     0.53739   0.30534   0.50001   0.00000  Uiso   1.00
H57    H     0.69466   0.23204   0.50001   0.00000  Uiso   1.00
H58    H     0.76538   0.30161   0.50001   0.00000  Uiso   1.00
H59    H     0.69839   0.46377   0.50001   0.00000  Uiso   1.00
H60    H     0.53624   0.23462   0.50001   0.00000  Uiso   1.00
H61    H     0.46261   0.76796   0.50001   0.00000  Uiso   1.00
H62    H     0.30534   0.53739   0.50001   0.00000  Uiso   1.00
H63    H     0.23204   0.69466   0.50001   0.00000  Uiso   1.00
H64    H     0.30161   0.76538   0.50001   0.00000  Uiso   1.00
H65    H     0.46377   0.69839   0.50001   0.00000  Uiso   1.00
H66    H     0.23462   0.53624   0.50001   0.00000  Uiso   1.00
C67    C     0.05470   0.52469   0.50001   0.00000  Uiso   1.00
C68    C     0.47531   0.53001   0.50001   0.00000  Uiso   1.00
C69    C     0.46999   0.94530   0.50001   0.00000  Uiso   1.00
C70    C     0.52469   0.05470   0.50001   0.00000  Uiso   1.00
C71    C     0.53001   0.47531   0.50001   0.00000  Uiso   1.00
C72    C     0.94530   0.46999   0.50001   0.00000  Uiso   1.00
C73    C     0.02674   0.47069   0.50001   0.00000  Uiso   1.00
C74    C     0.52931   0.55605   0.50001   0.00000  Uiso   1.00
C75    C     0.44395   0.97326   0.50001   0.00000  Uiso   1.00
C76    C     0.47069   0.02674   0.50001   0.00000  Uiso   1.00
C77    C     0.55605   0.52931   0.50001   0.00000  Uiso   1.00
C78    C     0.97326   0.44395   0.50001   0.00000  Uiso   1.00
C79    C     0.97300   0.52423   0.50001   0.00000  Uiso   1.00
C80    C     0.47577   0.44877   0.50001   0.00000  Uiso   1.00
C81    C     0.55123   0.02700   0.50001   0.00000  Uiso   1.00
C82    C     0.52423   0.97300   0.50001   0.00000  Uiso   1.00
C83    C     0.44877   0.47577   0.50001   0.00000  Uiso   1.00
C84    C     0.02700   0.55123   0.50001   0.00000  Uiso   1.00
N85    N     0.56120   0.60679   0.50001   0.00000  Uiso   1.00
N86    N     0.39321   0.95442   0.50001   0.00000  Uiso   1.00
N87    N     0.04558   0.43880   0.50001   0.00000  Uiso   1.00
N88    N     0.60679   0.56120   0.50001   0.00000  Uiso   1.00
N89    N     0.95442   0.39321   0.50001   0.00000  Uiso   1.00
N90    N     0.43880   0.04558   0.50001   0.00000  Uiso   1.00
S91    S     0.62356   0.62356   0.50001   0.00000  Uiso   1.00
S92    S     0.37644  -0.00000   0.50001   0.00000  Uiso   1.00
S93    S    -0.00000   0.37644   0.50001   0.00000  Uiso   1.00
H94    H     0.04618   0.59061   0.50001   0.00000  Uiso   1.00
H95    H     0.40939   0.45557   0.50001   0.00000  Uiso   1.00
H96    H     0.54443   0.95382   0.50001   0.00000  Uiso   1.00
H97    H     0.59061   0.04618   0.50001   0.00000  Uiso   1.00
H98    H     0.45557   0.40939   0.50001   0.00000  Uiso   1.00
H99    H     0.95382   0.54443   0.50001   0.00000  Uiso   1.00
loop_
_geom_bond_atom_site_label_1
_geom_bond_atom_site_label_2
_geom_bond_distance
_geom_bond_site_symmetry_2
_ccdc_geom_bond_type
C1     C14     1.430   .     S
C1     C6      1.431   .     S
C1     C2      1.441   .     S
C2     C3      1.432   .     S
C2     C7      1.430   .     S
C3     C4      1.392   .     S
C3     H55     1.014   .     S
C4     C5      1.382   .     S
C4     O49     1.347   .     S
C5     O37     1.345   .     S
C5     C6      1.392   .     S
C6     H58     1.014   .     S
C7     C12     1.431   .     S
C7     C8      1.441   .     S
C8     C9      1.432   .     S
C8     C13     1.430   .     S
C9     H56     1.014   .     S
C9     C10     1.392   .     S
C10    O50     1.347   .     S
C10    C11     1.382   .     S
C11    C12     1.392   .     S
C11    O38     1.345   .     S
C12    H59     1.014   .     S
C13    C14     1.441   .     S
C13    C18     1.431   .     S
C14    C15     1.432   .     S
C15    C16     1.392   .     S
C15    H57     1.014   .     S
C16    C17     1.382   .     S
C16    O51     1.347   .     S
C17    C18     1.392   .     S
C17    O39     1.345   .     S
C18    H60     1.014   .     S
C19    C32     1.430   .     S
C19    C20     1.441   .     S
C19    C24     1.431   .     S
C20    C25     1.430   .     S
C20    C21     1.432   .     S
C21    C22     1.392   .     S
C21    H61     1.014   .     S
C22    C23     1.382   .     S
C22    O52     1.347   .     S
C23    C24     1.392   .     S
C23    O40     1.345   .     S
C24    H64     1.014   .     S
C25    C30     1.431   .     S
C25    C26     1.441   .     S
C26    C27     1.432   .     S
C26    C31     1.430   .     S
C27    C28     1.392   .     S
C27    H62     1.014   .     S
C28    C29     1.382   .     S
C28    O53     1.347   .     S
C29    O41     1.345   .     S
C29    C30     1.392   .     S
C30    H65     1.014   .     S
C31    C36     1.431   .     S
C31    C32     1.441   .     S
C32    C33     1.432   .     S
C33    H63     1.014   .     S
C33    C34     1.392   .     S
C34    C35     1.382   .     S
C34    O54     1.347   .     S
C35    C36     1.392   .     S
C35    O42     1.345   .     S
C36    H66     1.014   .     S
O37    B43     1.441   .     S
O38    B44     1.441   .     S
O39    B45     1.441   .     S
O40    B46     1.441   .     S
O41    B47     1.441   .     S
O42    B48     1.441   .     S
B43    C72     1.488   .     S
B43    O49     1.442   .     S
B44    O50     1.442   .     S
B44    C71     1.488   .     S
B45    O51     1.442   .     S
B45    C70     1.488   .     S
B46    O52     1.442   .     S
B46    C69     1.488   .     S
B47    C68     1.488   .     S
B47    O53     1.442   .     S
B48    O54     1.442   .     S
B48    C67     1.488   .     S
C67    C73     1.410   .     S
C67    C84     1.416   .     S
C68    C83     1.416   .     S
C68    C74     1.410   .     S
C69    C75     1.410   .     S
C69    C82     1.416   .     S
C70    C81     1.416   .     S
C70    C76     1.410   .     S
C71    C77     1.410   .     S
C71    C80     1.416   .     S
C72    C79     1.416   .     S
C72    C78     1.410   .     S
C73    N87     1.339   .     S
C74    N85     1.339   .     S
C74    C77     1.396   .     S
C75    N86     1.339   .     S
C76    N90     1.339   .     S
C77    N88     1.339   .     S
C78    N89     1.339   .     S
C79    H99     1.028   .     S
C80    H98     1.028   .     S
C80    C83     1.410   .     S
C81    H97     1.028   .     S
C82    H96     1.028   .     S
C83    H95     1.028   .     S
C84    H94     1.028   .     S
N85    S91     1.685   .     S
N87    S93     1.685   .     S
N88    S91     1.685   .     S
N90    S92     1.685   .     S
