data_DAAQ-TFP_COF
_audit_creation_date              2016-12-13
_audit_creation_method            'Materials Studio'
_symmetry_space_group_name_H-M    'P1'
_symmetry_Int_Tables_number       1
_symmetry_cell_setting            triclinic
loop_
_symmetry_equiv_pos_as_xyz
  x,y,z
_cell_length_a                    29.8330
_cell_length_b                    29.8330
_cell_length_c                    3.6000
_cell_angle_alpha                 90.0000
_cell_angle_beta                  90.0000
_cell_angle_gamma                 60.0000
loop_
_atom_site_label
_atom_site_type_symbol
_atom_site_fract_x
_atom_site_fract_y
_atom_site_fract_z
_atom_site_U_iso_or_equiv
_atom_site_adp_type
_atom_site_occupancy
C1     C     0.40691   0.36240   1.38889   0.00000  Uiso   1.00
N1     N     0.39996   0.41163   1.38889   0.00000  Uiso   1.00
C2     C     0.43921   0.42318   1.38889   0.00000  Uiso   1.00
C3     C     0.48947   0.38683   1.38889   0.00000  Uiso   1.00
C4     C     0.55006   0.46320   1.38889   0.00000  Uiso   1.00
C5     C     0.51330   0.44984   1.38889   0.00000  Uiso   1.00
C6     C     0.46305   0.48675   1.38889   0.00000  Uiso   1.00
C7     C     0.52591   0.40005   1.38889   0.00000  Uiso   1.00
C8     C     0.42668   0.47290   1.38889   0.00000  Uiso   1.00
O1     O     0.40658   0.56872   1.38889   0.00000  Uiso   1.00
H1     H     0.55564   0.66768   1.38889   0.00000  Uiso   1.00
H2     H     0.49823   0.65196   1.38889   0.00000  Uiso   1.00
H3     H     0.43561   0.62874   1.38889   0.00000  Uiso   1.00
H4     H     0.61190   0.49879   1.38889   0.00000  Uiso   1.00
H5     H     0.36482   0.44226   1.38889   0.00000  Uiso   1.00
C9     C     0.59309   0.63760   1.38889   0.00000  Uiso   1.00
N2     N     0.60004   0.58837   1.38889   0.00000  Uiso   1.00
C10    C     0.56079   0.57682   1.38889   0.00000  Uiso   1.00
C11    C     0.51053   0.61317   1.38889   0.00000  Uiso   1.00
C12    C     0.44994   0.53680   1.38889   0.00000  Uiso   1.00
C13    C     0.48670   0.55016   1.38889   0.00000  Uiso   1.00
C14    C     0.53695   0.51325   1.38889   0.00000  Uiso   1.00
C15    C     0.47409   0.59995   1.38889   0.00000  Uiso   1.00
C16    C     0.57332   0.52710   1.38889   0.00000  Uiso   1.00
O2     O     0.59342   0.43128   1.38889   0.00000  Uiso   1.00
H6     H     0.44436   0.33232   1.38889   0.00000  Uiso   1.00
H7     H     0.50177   0.34804   1.38889   0.00000  Uiso   1.00
H8     H     0.56439   0.37126   1.38889   0.00000  Uiso   1.00
H9     H     0.38810   0.50121   1.38889   0.00000  Uiso   1.00
H10    H     0.63518   0.55774   1.38889   0.00000  Uiso   1.00
C17    C     0.23069   0.40691   1.38889   0.00000  Uiso   1.00
N3     N     0.18841   0.39996   1.38889   0.00000  Uiso   1.00
C18    C     0.13761   0.43921   1.38889   0.00000  Uiso   1.00
C19    C     0.12370   0.48947   1.38889   0.00000  Uiso   1.00
C20    C     0.98674   0.55006   1.38889   0.00000  Uiso   1.00
C21    C     0.03686   0.51330   1.38889   0.00000  Uiso   1.00
C22    C     0.05020   0.46305   1.38889   0.00000  Uiso   1.00
C23    C     0.07404   0.52591   1.38889   0.00000  Uiso   1.00
C24    C     0.10042   0.42668   1.38889   0.00000  Uiso   1.00
O3     O     0.02470   0.40658   1.38889   0.00000  Uiso   1.00
H11    H     0.77668   0.55564   1.38889   0.00000  Uiso   1.00
H12    H     0.84981   0.49823   1.38889   0.00000  Uiso   1.00
H13    H     0.93565   0.43561   1.38889   0.00000  Uiso   1.00
H14    H     0.88931   0.61190   1.38889   0.00000  Uiso   1.00
H15    H     0.19292   0.36482   1.38889   0.00000  Uiso   1.00
C25    C     0.76931   0.59309   1.38889   0.00000  Uiso   1.00
N4     N     0.81159   0.60004   1.38889   0.00000  Uiso   1.00
C26    C     0.86239   0.56079   1.38889   0.00000  Uiso   1.00
C27    C     0.87630   0.51053   1.38889   0.00000  Uiso   1.00
C28    C     0.01326   0.44994   1.38889   0.00000  Uiso   1.00
C29    C     0.96314   0.48670   1.38889   0.00000  Uiso   1.00
C30    C     0.94980   0.53695   1.38889   0.00000  Uiso   1.00
C31    C     0.92596   0.47409   1.38889   0.00000  Uiso   1.00
C32    C     0.89958   0.57332   1.38889   0.00000  Uiso   1.00
O4     O     0.97530   0.59342   1.38889   0.00000  Uiso   1.00
H16    H     0.22332   0.44436   1.38889   0.00000  Uiso   1.00
H17    H     0.15019   0.50177   1.38889   0.00000  Uiso   1.00
H18    H     0.06435   0.56439   1.38889   0.00000  Uiso   1.00
H19    H     0.11069   0.38810   1.38889   0.00000  Uiso   1.00
H20    H     0.80708   0.63518   1.38889   0.00000  Uiso   1.00
C33    C     0.36240   0.23069   1.38889   0.00000  Uiso   1.00
N5     N     0.41163   0.18841   1.38889   0.00000  Uiso   1.00
C34    C     0.42318   0.13761   1.38889   0.00000  Uiso   1.00
C35    C     0.38683   0.12370   1.38889   0.00000  Uiso   1.00
C36    C     0.46320   0.98674   1.38889   0.00000  Uiso   1.00
C37    C     0.44984   0.03686   1.38889   0.00000  Uiso   1.00
C38    C     0.48675   0.05020   1.38889   0.00000  Uiso   1.00
C39    C     0.40005   0.07404   1.38889   0.00000  Uiso   1.00
C40    C     0.47290   0.10042   1.38889   0.00000  Uiso   1.00
O5     O     0.56872   0.02470   1.38889   0.00000  Uiso   1.00
H21    H     0.66768   0.77668   1.38889   0.00000  Uiso   1.00
H22    H     0.65196   0.84981   1.38889   0.00000  Uiso   1.00
H23    H     0.62874   0.93565   1.38889   0.00000  Uiso   1.00
H24    H     0.49879   0.88931   1.38889   0.00000  Uiso   1.00
H25    H     0.44226   0.19292   1.38889   0.00000  Uiso   1.00
C41    C     0.63760   0.76931   1.38889   0.00000  Uiso   1.00
N6     N     0.58837   0.81159   1.38889   0.00000  Uiso   1.00
C42    C     0.57682   0.86239   1.38889   0.00000  Uiso   1.00
C43    C     0.61317   0.87630   1.38889   0.00000  Uiso   1.00
C44    C     0.53680   0.01326   1.38889   0.00000  Uiso   1.00
C45    C     0.55016   0.96314   1.38889   0.00000  Uiso   1.00
C46    C     0.51325   0.94980   1.38889   0.00000  Uiso   1.00
C47    C     0.59995   0.92596   1.38889   0.00000  Uiso   1.00
C48    C     0.52710   0.89958   1.38889   0.00000  Uiso   1.00
O6     O     0.43128   0.97530   1.38889   0.00000  Uiso   1.00
H26    H     0.33232   0.22332   1.38889   0.00000  Uiso   1.00
H27    H     0.34804   0.15019   1.38889   0.00000  Uiso   1.00
H28    H     0.37126   0.06435   1.38889   0.00000  Uiso   1.00
H29    H     0.50121   0.11069   1.38889   0.00000  Uiso   1.00
H30    H     0.55774   0.80708   1.38889   0.00000  Uiso   1.00
C49    C     0.68317   0.61371   1.38889   0.00000  Uiso   1.00
C50    C     0.62934   0.64980   1.38889   0.00000  Uiso   1.00
O7     O     0.69760   0.56986   1.38889   0.00000  Uiso   1.00
C51    C     0.61371   0.70312   1.38889   0.00000  Uiso   1.00
C52    C     0.64980   0.72086   1.38889   0.00000  Uiso   1.00
O8     O     0.56986   0.73254   1.38889   0.00000  Uiso   1.00
C53    C     0.70312   0.68317   1.38889   0.00000  Uiso   1.00
C54    C     0.72086   0.62934   1.38889   0.00000  Uiso   1.00
O9     O     0.73254   0.69760   1.38889   0.00000  Uiso   1.00
C55    C     0.31683   0.38629   1.38889   0.00000  Uiso   1.00
C56    C     0.37066   0.35020   1.38889   0.00000  Uiso   1.00
O10    O     0.30240   0.43014   1.38889   0.00000  Uiso   1.00
C57    C     0.38629   0.29688   1.38889   0.00000  Uiso   1.00
C58    C     0.35020   0.27914   1.38889   0.00000  Uiso   1.00
O11    O     0.43014   0.26746   1.38889   0.00000  Uiso   1.00
C59    C     0.29688   0.31683   1.38889   0.00000  Uiso   1.00
C60    C     0.27914   0.37066   1.38889   0.00000  Uiso   1.00
O12    O     0.26746   0.30240   1.38889   0.00000  Uiso   1.00
loop_
_geom_bond_atom_site_label_1
_geom_bond_atom_site_label_2
_geom_bond_distance
_geom_bond_site_symmetry_2
_ccdc_geom_bond_type
C1     C56     1.302   .     S
C1     N1      1.377   .     S
C1     H6      1.025   .     S
N1     C2      1.376   .     S
N1     H5      0.988   .     S
C2     C8      1.336   .     S
C2     C3      1.341   .     S
C3     H7      1.024   .     S
C3     C7      1.329   .     S
C4     O2      1.161   .     S
C4     C5      1.341   .     S
C4     C14     1.341   .     S
C5     C6      1.345   .     S
C5     C7      1.338   .     S
C6     C12     1.341   .     S
C6     C8      1.340   .     S
C7     H8      1.034   .     S
C8     H9      1.032   .     S
O1     C12     1.161   .     S
H1     C9      1.025   .     S
H2     C11     1.024   .     S
H3     C15     1.034   .     S
H4     C16     1.032   .     S
C9     C50     1.302   .     S
C9     N2      1.377   .     S
N2     H10     0.988   .     S
N2     C10     1.376   .     S
C10    C11     1.341   .     S
C10    C16     1.336   .     S
C11    C15     1.329   .     S
C12    C13     1.341   .     S
C13    C15     1.338   .     S
C13    C14     1.345   .     S
C14    C16     1.340   .     S
C17    C60     1.302   .     S
C17    N3      1.377   .     S
C17    H16     1.025   .     S
N3     H15     0.988   .     S
N3     C18     1.376   .     S
C18    C24     1.336   .     S
C18    C19     1.341   .     S
C19    H17     1.024   .     S
C19    C23     1.329   .     S
C20    O4      1.161   .     S
C20    C30     1.341   .     S
C21    C23     1.338   .     S
C21    C22     1.345   .     S
C22    C28     1.341   .     S
C22    C24     1.340   .     S
C23    H18     1.034   .     S
C24    H19     1.032   .     S
O3     C28     1.161   .     S
H11    C25     1.025   .     S
H12    C27     1.024   .     S
H13    C31     1.034   .     S
H14    C32     1.032   .     S
C25    N4      1.377   .     S
C25    C54     1.302   .     S
N4     C26     1.376   .     S
N4     H20     0.988   .     S
C26    C32     1.336   .     S
C26    C27     1.341   .     S
C27    C31     1.329   .     S
C29    C30     1.345   .     S
C29    C31     1.338   .     S
C30    C32     1.340   .     S
C33    H26     1.025   .     S
C33    C58     1.302   .     S
C33    N5      1.377   .     S
N5     C34     1.376   .     S
N5     H25     0.988   .     S
C34    C40     1.336   .     S
C34    C35     1.341   .     S
C35    C39     1.329   .     S
C35    H27     1.024   .     S
C36    O6      1.161   .     S
C36    C46     1.341   .     S
C37    C38     1.345   .     S
C37    C39     1.338   .     S
C38    C44     1.341   .     S
C38    C40     1.340   .     S
C39    H28     1.034   .     S
C40    H29     1.032   .     S
O5     C44     1.161   .     S
H21    C41     1.025   .     S
H22    C43     1.024   .     S
H23    C47     1.034   .     S
H24    C48     1.032   .     S
C41    N6      1.377   .     S
C41    C52     1.302   .     S
N6     H30     0.988   .     S
N6     C42     1.376   .     S
C42    C43     1.341   .     S
C42    C48     1.336   .     S
C43    C47     1.329   .     S
C45    C47     1.338   .     S
C45    C46     1.345   .     S
C46    C48     1.340   .     S
C49    O7      1.155   .     S
C49    C50     1.417   .     S
C49    C54     1.416   .     S
C50    C51     1.416   .     S
C51    O8      1.155   .     S
C51    C52     1.417   .     S
C52    C53     1.416   .     S
C53    C54     1.417   .     S
C53    O9      1.155   .     S
C55    C60     1.416   .     S
C55    C56     1.417   .     S
C55    O10     1.155   .     S
C56    C57     1.416   .     S
C57    C58     1.417   .     S
C57    O11     1.155   .     S
C58    C59     1.416   .     S
C59    O12     1.155   .     S
C59    C60     1.417   .     S
