data_DBA-COF_2
_audit_creation_date              2016-12-13
_audit_creation_method            'Materials Studio'
_symmetry_space_group_name_H-M    'P1'
_symmetry_Int_Tables_number       1
_symmetry_cell_setting            triclinic
loop_
_symmetry_equiv_pos_as_xyz
  x,y,z
_cell_length_a                    40.6220
_cell_length_b                    40.6220
_cell_length_c                    3.5438
_cell_angle_alpha                 90.0000
_cell_angle_beta                  90.0000
_cell_angle_gamma                 120.0000
loop_
_atom_site_label
_atom_site_type_symbol
_atom_site_fract_x
_atom_site_fract_y
_atom_site_fract_z
_atom_site_U_iso_or_equiv
_atom_site_adp_type
_atom_site_occupancy
C1     C     0.85670   0.44529   0.50000   0.00000  Uiso   1.00
C2     C     0.55471   0.41142   0.50000   0.00000  Uiso   1.00
C3     C     0.58858   0.14329   0.50000   0.00000  Uiso   1.00
C4     C     0.14329   0.55471   0.50000   0.00000  Uiso   1.00
C5     C     0.44529   0.58858   0.50000   0.00000  Uiso   1.00
C6     C     0.41142   0.85670   0.50000   0.00000  Uiso   1.00
C7     C     0.44529   0.85670   0.50000   0.00000  Uiso   1.00
C8     C     0.41142   0.55471   0.50000   0.00000  Uiso   1.00
C9     C     0.14329   0.58858   0.50000   0.00000  Uiso   1.00
C10    C     0.55471   0.14329   0.50000   0.00000  Uiso   1.00
C11    C     0.58858   0.44529   0.50000   0.00000  Uiso   1.00
C12    C     0.85670   0.41142   0.50000   0.00000  Uiso   1.00
C13    C     0.82299   0.44627   0.50000   0.00000  Uiso   1.00
C14    C     0.55373   0.37672   0.50000   0.00000  Uiso   1.00
C15    C     0.62328   0.17701   0.50000   0.00000  Uiso   1.00
C16    C     0.17701   0.55373   0.50000   0.00000  Uiso   1.00
C17    C     0.44627   0.62328   0.50000   0.00000  Uiso   1.00
C18    C     0.37672   0.82299   0.50000   0.00000  Uiso   1.00
C19    C     0.44627   0.82299   0.50000   0.00000  Uiso   1.00
C20    C     0.37672   0.55373   0.50000   0.00000  Uiso   1.00
C21    C     0.17701   0.62328   0.50000   0.00000  Uiso   1.00
C22    C     0.55373   0.17701   0.50000   0.00000  Uiso   1.00
C23    C     0.62328   0.44627   0.50000   0.00000  Uiso   1.00
C24    C     0.82299   0.37672   0.50000   0.00000  Uiso   1.00
C25    C     0.75321   0.41241   0.50000   0.00000  Uiso   1.00
C26    C     0.58759   0.34080   0.50000   0.00000  Uiso   1.00
C27    C     0.65919   0.24678   0.50000   0.00000  Uiso   1.00
C28    C     0.24678   0.58759   0.50000   0.00000  Uiso   1.00
C29    C     0.41241   0.65919   0.50000   0.00000  Uiso   1.00
C30    C     0.34080   0.75321   0.50000   0.00000  Uiso   1.00
C31    C     0.41241   0.75321   0.50000   0.00000  Uiso   1.00
C32    C     0.34080   0.58759   0.50000   0.00000  Uiso   1.00
C33    C     0.24678   0.65919   0.50000   0.00000  Uiso   1.00
C34    C     0.58759   0.24678   0.50000   0.00000  Uiso   1.00
C35    C     0.65919   0.41241   0.50000   0.00000  Uiso   1.00
C36    C     0.75321   0.34080   0.50000   0.00000  Uiso   1.00
C37    C     0.72370   0.41269   0.50000   0.00000  Uiso   1.00
C38    C     0.58731   0.31101   0.50000   0.00000  Uiso   1.00
C39    C     0.68899   0.27630   0.50000   0.00000  Uiso   1.00
C40    C     0.27630   0.58731   0.50000   0.00000  Uiso   1.00
C41    C     0.41269   0.68899   0.50000   0.00000  Uiso   1.00
C42    C     0.31101   0.72370   0.50000   0.00000  Uiso   1.00
C43    C     0.41269   0.72370   0.50000   0.00000  Uiso   1.00
C44    C     0.31101   0.58731   0.50000   0.00000  Uiso   1.00
C45    C     0.27630   0.68899   0.50000   0.00000  Uiso   1.00
C46    C     0.58731   0.27630   0.50000   0.00000  Uiso   1.00
C47    C     0.68899   0.41269   0.50000   0.00000  Uiso   1.00
C48    C     0.72370   0.31101   0.50000   0.00000  Uiso   1.00
C49    C     0.78833   0.41165   0.50000   0.00000  Uiso   1.00
C50    C     0.58835   0.37668   0.50000   0.00000  Uiso   1.00
C51    C     0.62332   0.21167   0.50000   0.00000  Uiso   1.00
C52    C     0.21167   0.58835   0.50000   0.00000  Uiso   1.00
C53    C     0.41165   0.62332   0.50000   0.00000  Uiso   1.00
C54    C     0.37668   0.78833   0.50000   0.00000  Uiso   1.00
C55    C     0.41165   0.78833   0.50000   0.00000  Uiso   1.00
C56    C     0.37668   0.58835   0.50000   0.00000  Uiso   1.00
C57    C     0.21167   0.62332   0.50000   0.00000  Uiso   1.00
C58    C     0.58835   0.21167   0.50000   0.00000  Uiso   1.00
C59    C     0.62332   0.41165   0.50000   0.00000  Uiso   1.00
C60    C     0.78833   0.37668   0.50000   0.00000  Uiso   1.00
B61    B     0.91547   0.45773   0.50000   0.00000  Uiso   1.00
B62    B     0.54226   0.45773   0.50000   0.00000  Uiso   1.00
B63    B     0.54226   0.08453   0.50000   0.00000  Uiso   1.00
B64    B     0.08453   0.54226   0.50000   0.00000  Uiso   1.00
B65    B     0.45773   0.54226   0.50000   0.00000  Uiso   1.00
B66    B     0.45773   0.91547   0.50000   0.00000  Uiso   1.00
C67    C     0.03998   0.51999   0.50000   0.00000  Uiso   1.00
C68    C     0.48001   0.51999   0.50000   0.00000  Uiso   1.00
C69    C     0.48001   0.96002   0.50000   0.00000  Uiso   1.00
C70    C     0.96002   0.48001   0.50000   0.00000  Uiso   1.00
C71    C     0.51999   0.48001   0.50000   0.00000  Uiso   1.00
C72    C     0.51999   0.03998   0.50000   0.00000  Uiso   1.00
C73    C     0.01988   0.53979   0.50000   0.00000  Uiso   1.00
C74    C     0.46021   0.48008   0.50000   0.00000  Uiso   1.00
C75    C     0.51992   0.98012   0.50000   0.00000  Uiso   1.00
C76    C     0.98012   0.46021   0.50000   0.00000  Uiso   1.00
C77    C     0.53979   0.51992   0.50000   0.00000  Uiso   1.00
C78    C     0.48008   0.01988   0.50000   0.00000  Uiso   1.00
C79    C     0.53979   0.01988   0.50000   0.00000  Uiso   1.00
C80    C     0.48008   0.46021   0.50000   0.00000  Uiso   1.00
C81    C     0.98012   0.51992   0.50000   0.00000  Uiso   1.00
C82    C     0.46021   0.98012   0.50000   0.00000  Uiso   1.00
C83    C     0.51992   0.53979   0.50000   0.00000  Uiso   1.00
C84    C     0.01988   0.48008   0.50000   0.00000  Uiso   1.00
H85    H     0.03504   0.57065   0.50000   0.00000  Uiso   1.00
H86    H     0.42935   0.46438   0.50000   0.00000  Uiso   1.00
H87    H     0.53562   0.96496   0.50000   0.00000  Uiso   1.00
H88    H     0.96496   0.42935   0.50000   0.00000  Uiso   1.00
H89    H     0.57065   0.53562   0.50000   0.00000  Uiso   1.00
H90    H     0.46438   0.03504   0.50000   0.00000  Uiso   1.00
H91    H     0.57065   0.03504   0.50000   0.00000  Uiso   1.00
H92    H     0.46438   0.42935   0.50000   0.00000  Uiso   1.00
H93    H     0.96496   0.53562   0.50000   0.00000  Uiso   1.00
H94    H     0.42935   0.96496   0.50000   0.00000  Uiso   1.00
H95    H     0.53562   0.57065   0.50000   0.00000  Uiso   1.00
H96    H     0.03504   0.46438   0.50000   0.00000  Uiso   1.00
H97    H     0.82398   0.47338   0.50000   0.00000  Uiso   1.00
H98    H     0.52662   0.35060   0.50000   0.00000  Uiso   1.00
H99    H     0.64940   0.17602   0.50000   0.00000  Uiso   1.00
H100   H     0.17602   0.52662   0.50000   0.00000  Uiso   1.00
H101   H     0.47338   0.64940   0.50000   0.00000  Uiso   1.00
H102   H     0.35060   0.82398   0.50000   0.00000  Uiso   1.00
H103   H     0.47338   0.82398   0.50000   0.00000  Uiso   1.00
H104   H     0.35060   0.52662   0.50000   0.00000  Uiso   1.00
H105   H     0.17602   0.64940   0.50000   0.00000  Uiso   1.00
H106   H     0.52662   0.17602   0.50000   0.00000  Uiso   1.00
H107   H     0.64940   0.47338   0.50000   0.00000  Uiso   1.00
H108   H     0.82398   0.35060   0.50000   0.00000  Uiso   1.00
O109   O     0.89285   0.47671   0.50000   0.00000  Uiso   1.00
O110   O     0.52329   0.41614   0.50000   0.00000  Uiso   1.00
O111   O     0.58386   0.10715   0.50000   0.00000  Uiso   1.00
O112   O     0.10715   0.52329   0.50000   0.00000  Uiso   1.00
O113   O     0.47671   0.58386   0.50000   0.00000  Uiso   1.00
O114   O     0.41614   0.89285   0.50000   0.00000  Uiso   1.00
O115   O     0.47671   0.89285   0.50000   0.00000  Uiso   1.00
O116   O     0.41614   0.52329   0.50000   0.00000  Uiso   1.00
O117   O     0.10715   0.58386   0.50000   0.00000  Uiso   1.00
O118   O     0.52329   0.10715   0.50000   0.00000  Uiso   1.00
O119   O     0.58386   0.47671   0.50000   0.00000  Uiso   1.00
O120   O     0.89285   0.41614   0.50000   0.00000  Uiso   1.00
loop_
_geom_bond_atom_site_label_1
_geom_bond_atom_site_label_2
_geom_bond_distance
_geom_bond_site_symmetry_2
_ccdc_geom_bond_type
C1     C12     1.376   .     S
C1     C13     1.390   .     S
C1     O109    1.382   .     S
C2     C11     1.376   .     S
C2     O110    1.382   .     S
C2     C14     1.390   .     S
C3     C10     1.376   .     S
C3     O111    1.382   .     S
C3     C15     1.390   .     S
C4     C9      1.376   .     S
C4     O112    1.382   .     S
C4     C16     1.390   .     S
C5     C8      1.376   .     S
C5     O113    1.382   .     S
C5     C17     1.390   .     S
C6     O114    1.382   .     S
C6     C7      1.376   .     S
C6     C18     1.390   .     S
C7     O115    1.382   .     S
C7     C19     1.390   .     S
C8     O116    1.382   .     S
C8     C20     1.390   .     S
C9     O117    1.382   .     S
C9     C21     1.390   .     S
C10    O118    1.382   .     S
C10    C22     1.390   .     S
C11    C23     1.390   .     S
C11    O119    1.382   .     S
C12    O120    1.382   .     S
C12    C24     1.390   .     S
C13    C49     1.407   .     S
C13    H97     1.082   .     S
C14    C50     1.407   .     S
C14    H98     1.082   .     S
C15    H99     1.082   .     S
C15    C51     1.407   .     S
C16    H100    1.082   .     S
C16    C52     1.407   .     S
C17    H101    1.082   .     S
C17    C53     1.407   .     S
C18    H102    1.082   .     S
C18    C54     1.407   .     S
C19    H103    1.082   .     S
C19    C55     1.407   .     S
C20    H104    1.082   .     S
C20    C56     1.407   .     S
C21    H105    1.082   .     S
C21    C57     1.407   .     S
C22    H106    1.082   .     S
C22    C58     1.407   .     S
C23    C59     1.407   .     S
C23    H107    1.082   .     S
C24    C60     1.407   .     S
C24    H108    1.082   .     S
C25    C37     1.205   .     S
C25    C49     1.442   .     S
C26    C38     1.205   .     S
C26    C50     1.442   .     S
C27    C51     1.442   .     S
C27    C39     1.205   .     S
C28    C52     1.442   .     S
C28    C40     1.205   .     S
C29    C41     1.205   .     S
C29    C53     1.442   .     S
C30    C42     1.205   .     S
C30    C54     1.442   .     S
C31    C43     1.205   .     S
C31    C55     1.442   .     S
C32    C56     1.442   .     S
C32    C44     1.205   .     S
C33    C45     1.205   .     S
C33    C57     1.442   .     S
C34    C58     1.442   .     S
C34    C46     1.205   .     S
C35    C59     1.442   .     S
C35    C47     1.205   .     S
C36    C48     1.205   .     S
C36    C60     1.442   .     S
C37    C47     1.410   .     S
C38    C46     1.410   .     S
C39    C48     1.410   .     S
C40    C44     1.410   .     S
C41    C43     1.410   .     S
C42    C45     1.410   .     S
C49    C60     1.421   .     S
C50    C59     1.421   .     S
C51    C58     1.421   .     S
C52    C57     1.421   .     S
C53    C56     1.421   .     S
C54    C55     1.421   .     S
B61    O109    1.465   .     S
B61    C70     1.567   .     S
B61    O120    1.465   .     S
B62    O119    1.465   .     S
B62    C71     1.567   .     S
B62    O110    1.465   .     S
B63    O118    1.465   .     S
B63    O111    1.465   .     S
B63    C72     1.567   .     S
B64    C67     1.567   .     S
B64    O112    1.465   .     S
B64    O117    1.465   .     S
B65    O116    1.465   .     S
B65    C68     1.567   .     S
B65    O113    1.465   .     S
B66    C69     1.567   .     S
B66    O115    1.465   .     S
B66    O114    1.465   .     S
C67    C73     1.404   .     S
C67    C84     1.404   .     S
C68    C83     1.404   .     S
C68    C74     1.404   .     S
C69    C75     1.404   .     S
C69    C82     1.404   .     S
C70    C76     1.404   .     S
C70    C81     1.404   .     S
C71    C80     1.404   .     S
C71    C77     1.404   .     S
C72    C78     1.404   .     S
C72    C79     1.404   .     S
C73    H85     1.086   .     S
C74    C80     1.398   .     S
C74    H86     1.086   .     S
C75    H87     1.086   .     S
C76    H88     1.086   .     S
C77    H89     1.086   .     S
C77    C83     1.398   .     S
C78    H90     1.086   .     S
C79    H91     1.086   .     S
C80    H92     1.086   .     S
C81    H93     1.086   .     S
C82    H94     1.086   .     S
C83    H95     1.086   .     S
C84    H96     1.086   .     S
