data_DBA-COF_1
_audit_creation_date              2016-12-13
_audit_creation_method            'Materials Studio'
_symmetry_space_group_name_H-M    'P1'
_symmetry_Int_Tables_number       1
_symmetry_cell_setting            triclinic
loop_
_symmetry_equiv_pos_as_xyz
  x,y,z
_cell_length_a                    35.5829
_cell_length_b                    35.5829
_cell_length_c                    3.4000
_cell_angle_alpha                 90.0000
_cell_angle_beta                  90.0000
_cell_angle_gamma                 120.0000
loop_
_atom_site_label
_atom_site_type_symbol
_atom_site_fract_x
_atom_site_fract_y
_atom_site_fract_z
_atom_site_U_iso_or_equiv
_atom_site_adp_type
_atom_site_occupancy
O1     O     0.40378   0.52696   0.50000   0.00000  Uiso   1.00
O2     O     0.47304   0.59622   0.50000   0.00000  Uiso   1.00
C3     C     0.39826   0.56295   0.50000   0.00000  Uiso   1.00
C4     C     0.43705   0.60174   0.50000   0.00000  Uiso   1.00
C5     C     0.35844   0.56187   0.50000   0.00000  Uiso   1.00
C6     C     0.43813   0.64156   0.50000   0.00000  Uiso   1.00
C7     C     0.35842   0.60154   0.50000   0.00000  Uiso   1.00
C8     C     0.39846   0.64158   0.50000   0.00000  Uiso   1.00
C9     C     0.31735   0.60073   0.50000   0.00000  Uiso   1.00
C10    C     0.39927   0.68265   0.50000   0.00000  Uiso   1.00
B11    B     0.45142   0.54858   0.50000   0.00000  Uiso   1.00
C12    C     0.52294   0.47706   0.50000   0.00000  Uiso   1.00
C13    C     0.47732   0.45459   0.50000   0.00000  Uiso   1.00
C14    C     0.54541   0.52268   0.50000   0.00000  Uiso   1.00
H15    H     0.45927   0.41939   0.50000   0.00000  Uiso   1.00
H16    H     0.58061   0.54073   0.50000   0.00000  Uiso   1.00
H17    H     0.32828   0.53097   0.50000   0.00000  Uiso   1.00
H18    H     0.46903   0.67172   0.50000   0.00000  Uiso   1.00
O19    O     0.47304   0.87683   0.50000   0.00000  Uiso   1.00
O20    O     0.40378   0.87683   0.50000   0.00000  Uiso   1.00
C21    C     0.43705   0.83531   0.50000   0.00000  Uiso   1.00
C22    C     0.39826   0.83531   0.50000   0.00000  Uiso   1.00
C23    C     0.43813   0.79657   0.50000   0.00000  Uiso   1.00
C24    C     0.35844   0.79657   0.50000   0.00000  Uiso   1.00
C25    C     0.39846   0.75688   0.50000   0.00000  Uiso   1.00
C26    C     0.35842   0.75688   0.50000   0.00000  Uiso   1.00
C27    C     0.39927   0.71662   0.50000   0.00000  Uiso   1.00
C28    C     0.31735   0.71662   0.50000   0.00000  Uiso   1.00
B29    B     0.45142   0.90284   0.50000   0.00000  Uiso   1.00
H30    H     0.46903   0.79731   0.50000   0.00000  Uiso   1.00
H31    H     0.32828   0.79731   0.50000   0.00000  Uiso   1.00
O32    O     0.12317   0.59622   0.50000   0.00000  Uiso   1.00
O33    O     0.12317   0.52696   0.50000   0.00000  Uiso   1.00
C34    C     0.16469   0.60174   0.50000   0.00000  Uiso   1.00
C35    C     0.16469   0.56295   0.50000   0.00000  Uiso   1.00
C36    C     0.20343   0.64156   0.50000   0.00000  Uiso   1.00
C37    C     0.20343   0.56187   0.50000   0.00000  Uiso   1.00
C38    C     0.24312   0.64158   0.50000   0.00000  Uiso   1.00
C39    C     0.24312   0.60154   0.50000   0.00000  Uiso   1.00
C40    C     0.28338   0.68265   0.50000   0.00000  Uiso   1.00
C41    C     0.28338   0.60073   0.50000   0.00000  Uiso   1.00
B42    B     0.09716   0.54858   0.50000   0.00000  Uiso   1.00
H43    H     0.20269   0.67172   0.50000   0.00000  Uiso   1.00
H44    H     0.20269   0.53097   0.50000   0.00000  Uiso   1.00
O45    O     0.59622   0.47304   0.50000   0.00000  Uiso   1.00
O46    O     0.52696   0.40378   0.50000   0.00000  Uiso   1.00
C47    C     0.60174   0.43705   0.50000   0.00000  Uiso   1.00
C48    C     0.56295   0.39826   0.50000   0.00000  Uiso   1.00
C49    C     0.64156   0.43813   0.50000   0.00000  Uiso   1.00
C50    C     0.56187   0.35844   0.50000   0.00000  Uiso   1.00
C51    C     0.64158   0.39846   0.50000   0.00000  Uiso   1.00
C52    C     0.60154   0.35842   0.50000   0.00000  Uiso   1.00
C53    C     0.68265   0.39927   0.50000   0.00000  Uiso   1.00
C54    C     0.60073   0.31735   0.50000   0.00000  Uiso   1.00
B55    B     0.54858   0.45142   0.50000   0.00000  Uiso   1.00
C56    C     0.47706   0.52294   0.50000   0.00000  Uiso   1.00
C57    C     0.52268   0.54541   0.50000   0.00000  Uiso   1.00
C58    C     0.45459   0.47732   0.50000   0.00000  Uiso   1.00
H59    H     0.54073   0.58061   0.50000   0.00000  Uiso   1.00
H60    H     0.41939   0.45927   0.50000   0.00000  Uiso   1.00
H61    H     0.67172   0.46903   0.50000   0.00000  Uiso   1.00
H62    H     0.53097   0.32828   0.50000   0.00000  Uiso   1.00
O63    O     0.52696   0.12317   0.50000   0.00000  Uiso   1.00
O64    O     0.59622   0.12317   0.50000   0.00000  Uiso   1.00
C65    C     0.56295   0.16469   0.50000   0.00000  Uiso   1.00
C66    C     0.60174   0.16469   0.50000   0.00000  Uiso   1.00
C67    C     0.56187   0.20343   0.50000   0.00000  Uiso   1.00
C68    C     0.64156   0.20343   0.50000   0.00000  Uiso   1.00
C69    C     0.60154   0.24312   0.50000   0.00000  Uiso   1.00
C70    C     0.64158   0.24312   0.50000   0.00000  Uiso   1.00
C71    C     0.60073   0.28338   0.50000   0.00000  Uiso   1.00
C72    C     0.68265   0.28338   0.50000   0.00000  Uiso   1.00
B73    B     0.54858   0.09716   0.50000   0.00000  Uiso   1.00
H74    H     0.53097   0.20269   0.50000   0.00000  Uiso   1.00
H75    H     0.67172   0.20269   0.50000   0.00000  Uiso   1.00
O76    O     0.87683   0.40378   0.50000   0.00000  Uiso   1.00
O77    O     0.87683   0.47304   0.50000   0.00000  Uiso   1.00
C78    C     0.83531   0.39826   0.50000   0.00000  Uiso   1.00
C79    C     0.83531   0.43705   0.50000   0.00000  Uiso   1.00
C80    C     0.79657   0.35844   0.50000   0.00000  Uiso   1.00
C81    C     0.79657   0.43813   0.50000   0.00000  Uiso   1.00
C82    C     0.75688   0.35842   0.50000   0.00000  Uiso   1.00
C83    C     0.75688   0.39846   0.50000   0.00000  Uiso   1.00
C84    C     0.71662   0.31735   0.50000   0.00000  Uiso   1.00
C85    C     0.71662   0.39927   0.50000   0.00000  Uiso   1.00
B86    B     0.90284   0.45142   0.50000   0.00000  Uiso   1.00
H87    H     0.79731   0.32828   0.50000   0.00000  Uiso   1.00
H88    H     0.79731   0.46903   0.50000   0.00000  Uiso   1.00
C89    C     0.52294   0.04588   0.50000   0.00000  Uiso   1.00
C90    C     0.54541   0.02272   0.50000   0.00000  Uiso   1.00
C91    C     0.47732   0.02272   0.50000   0.00000  Uiso   1.00
H92    H     0.58061   0.03988   0.50000   0.00000  Uiso   1.00
H93    H     0.45927   0.03988   0.50000   0.00000  Uiso   1.00
C94    C     0.95412   0.47706   0.50000   0.00000  Uiso   1.00
C95    C     0.97728   0.52268   0.50000   0.00000  Uiso   1.00
C96    C     0.97728   0.45459   0.50000   0.00000  Uiso   1.00
H97    H     0.96012   0.54073   0.50000   0.00000  Uiso   1.00
H98    H     0.96012   0.41939   0.50000   0.00000  Uiso   1.00
C99    C     0.47706   0.95412   0.50000   0.00000  Uiso   1.00
C100   C     0.45459   0.97728   0.50000   0.00000  Uiso   1.00
C101   C     0.52268   0.97728   0.50000   0.00000  Uiso   1.00
H102   H     0.41939   0.96012   0.50000   0.00000  Uiso   1.00
H103   H     0.54073   0.96012   0.50000   0.00000  Uiso   1.00
C104   C     0.04588   0.52294   0.50000   0.00000  Uiso   1.00
C105   C     0.02272   0.47732   0.50000   0.00000  Uiso   1.00
C106   C     0.02272   0.54541   0.50000   0.00000  Uiso   1.00
H107   H     0.03988   0.45927   0.50000   0.00000  Uiso   1.00
H108   H     0.03988   0.58061   0.50000   0.00000  Uiso   1.00
loop_
_geom_bond_atom_site_label_1
_geom_bond_atom_site_label_2
_geom_bond_distance
_geom_bond_site_symmetry_2
_ccdc_geom_bond_type
O1     C3      1.389   .     S
O1     B11     1.470   .     S
O2     C4      1.389   .     S
O2     B11     1.470   .     S
C3     C5      1.398   .     S
C3     C4      1.380   .     S
C4     C6      1.398   .     S
C5     H17     1.087   .     S
C5     C7      1.412   .     S
C6     H18     1.087   .     S
C6     C8      1.412   .     S
C7     C9      1.447   .     S
C7     C8      1.425   .     S
C8     C10     1.447   .     S
C9     C41     1.209   .     S
C10    C27     1.209   .     S
B11    C56     1.580   .     S
C12    C14     1.406   .     S
C12    C13     1.406   .     S
C12    B55     1.580   .     S
C13    H15     1.085   .     S
C13    C58     1.400   .     S
C14    C57     1.400   .     S
C14    H16     1.085   .     S
O19    B29     1.470   .     S
O19    C21     1.389   .     S
O20    B29     1.470   .     S
O20    C22     1.389   .     S
C21    C22     1.380   .     S
C21    C23     1.398   .     S
C22    C24     1.398   .     S
C23    C25     1.412   .     S
C23    H30     1.087   .     S
C24    C26     1.412   .     S
C24    H31     1.087   .     S
C25    C26     1.425   .     S
C25    C27     1.447   .     S
C26    C28     1.447   .     S
C28    C40     1.209   .     S
B29    C99     1.580   .     S
O32    C34     1.389   .     S
O32    B42     1.470   .     S
O33    C35     1.389   .     S
O33    B42     1.470   .     S
C34    C36     1.398   .     S
C34    C35     1.380   .     S
C35    C37     1.398   .     S
C36    H43     1.087   .     S
C36    C38     1.412   .     S
C37    H44     1.087   .     S
C37    C39     1.412   .     S
C38    C40     1.447   .     S
C38    C39     1.425   .     S
C39    C41     1.447   .     S
B42    C104    1.580   .     S
O45    C47     1.389   .     S
O45    B55     1.470   .     S
O46    B55     1.470   .     S
O46    C48     1.389   .     S
C47    C49     1.398   .     S
C47    C48     1.380   .     S
C48    C50     1.398   .     S
C49    H61     1.087   .     S
C49    C51     1.412   .     S
C50    C52     1.412   .     S
C50    H62     1.087   .     S
C51    C52     1.425   .     S
C51    C53     1.447   .     S
C52    C54     1.447   .     S
C53    C85     1.209   .     S
C54    C71     1.209   .     S
C56    C57     1.406   .     S
C56    C58     1.406   .     S
C57    H59     1.085   .     S
C58    H60     1.085   .     S
O63    C65     1.389   .     S
O63    B73     1.470   .     S
O64    C66     1.389   .     S
O64    B73     1.470   .     S
C65    C66     1.380   .     S
C65    C67     1.398   .     S
C66    C68     1.398   .     S
C67    H74     1.087   .     S
C67    C69     1.412   .     S
C68    H75     1.087   .     S
C68    C70     1.412   .     S
C69    C71     1.447   .     S
C69    C70     1.425   .     S
C70    C72     1.447   .     S
C72    C84     1.209   .     S
B73    C89     1.580   .     S
O76    B86     1.470   .     S
O76    C78     1.389   .     S
O77    C79     1.389   .     S
O77    B86     1.470   .     S
C78    C80     1.398   .     S
C78    C79     1.380   .     S
C79    C81     1.398   .     S
C80    C82     1.412   .     S
C80    H87     1.087   .     S
C81    H88     1.087   .     S
C81    C83     1.412   .     S
C82    C83     1.425   .     S
C82    C84     1.447   .     S
C83    C85     1.447   .     S
B86    C94     1.580   .     S
C89    C90     1.406   .     S
C89    C91     1.406   .     S
C90    H92     1.085   .     S
C91    H93     1.085   .     S
C94    C95     1.406   .     S
C94    C96     1.406   .     S
C95    H97     1.085   .     S
C96    H98     1.085   .     S
C99    C101    1.406   .     S
C99    C100    1.406   .     S
C100   H102    1.085   .     S
C101   H103    1.085   .     S
C104   C106    1.406   .     S
C104   C105    1.406   .     S
C105   H107    1.085   .     S
C106   H108    1.085   .     S
