data_DhaTph-25
_audit_creation_date              2016-12-13
_audit_creation_method            'Materials Studio'
_symmetry_space_group_name_H-M    'P1'
_symmetry_Int_Tables_number       1
_symmetry_cell_setting            triclinic
loop_
_symmetry_equiv_pos_as_xyz
  x,y,z
_cell_length_a                    25.7882
_cell_length_b                    6.7443
_cell_length_c                    25.8979
_cell_angle_alpha                 90.0000
_cell_angle_beta                  100.3786
_cell_angle_gamma                 90.0000
loop_
_atom_site_label
_atom_site_type_symbol
_atom_site_fract_x
_atom_site_fract_y
_atom_site_fract_z
_atom_site_U_iso_or_equiv
_atom_site_adp_type
_atom_site_occupancy
C1     C     0.46750   0.50000   0.45017   0.00000  Uiso   1.00
C2     C     0.95339   0.50000   0.96380   0.00000  Uiso   1.00
C3     C     0.53250   0.50000   0.54984   0.00000  Uiso   1.00
C4     C     0.04661   0.50000   0.03621   0.00000  Uiso   1.00
C5     C     0.47754   0.50000   0.54527   0.00000  Uiso   1.00
C6     C     0.04909   0.50000   0.98286   0.00000  Uiso   1.00
C7     C     0.52246   0.50000   0.45473   0.00000  Uiso   1.00
C8     C     0.95091   0.50000   0.01714   0.00000  Uiso   1.00
C9     C     0.61329   0.50000   0.50948   0.00000  Uiso   1.00
C10    C     0.00335   0.50000   0.11308   0.00000  Uiso   1.00
C11    C     0.38671   0.50000   0.49052   0.00000  Uiso   1.00
C12    C     0.99665   0.50000   0.88692   0.00000  Uiso   1.00
C13    C     0.44472   0.50000   0.49562   0.00000  Uiso   1.00
C14    C     0.00133   0.50000   0.94516   0.00000  Uiso   1.00
C15    C     0.55527   0.50000   0.50439   0.00000  Uiso   1.00
C16    C     0.99867   0.50000   0.05484   0.00000  Uiso   1.00
N1     N     0.36449   0.50000   0.53173   0.00000  Uiso   1.00
N2     N     0.03690   0.50000   0.86341   0.00000  Uiso   1.00
N3     N     0.63550   0.50000   0.46828   0.00000  Uiso   1.00
N4     N     0.96310   0.50000   0.13659   0.00000  Uiso   1.00
N5     N     0.94233   0.50000   0.55808   0.00000  Uiso   1.00
N6     N     0.05767   0.50000   0.44192   0.00000  Uiso   1.00
H1     H     0.96640   0.50000   0.53384   0.00000  Uiso   1.00
H2     H     0.03360   0.50000   0.46616   0.00000  Uiso   1.00
C17    C     0.95811   0.50000   0.61026   0.00000  Uiso   1.00
C18    C     0.11013   0.50000   0.45716   0.00000  Uiso   1.00
C19    C     0.04189   0.50000   0.38974   0.00000  Uiso   1.00
C20    C     0.88987   0.50000   0.54284   0.00000  Uiso   1.00
C21    C     0.91208   0.50000   0.63116   0.00000  Uiso   1.00
C22    C     0.13064   0.50000   0.41105   0.00000  Uiso   1.00
C23    C     0.08792   0.50000   0.36884   0.00000  Uiso   1.00
C24    C     0.86936   0.50000   0.58895   0.00000  Uiso   1.00
H3     H     0.90951   0.50000   0.67238   0.00000  Uiso   1.00
H4     H     0.17194   0.50000   0.40809   0.00000  Uiso   1.00
H5     H     0.09049   0.50000   0.32762   0.00000  Uiso   1.00
H6     H     0.82806   0.50000   0.59191   0.00000  Uiso   1.00
N7     N     0.06775   0.50000   0.56693   0.00000  Uiso   1.00
N8     N     0.93225   0.50000   0.43307   0.00000  Uiso   1.00
C25    C     0.06209   0.50000   0.62028   0.00000  Uiso   1.00
C26    C     0.12117   0.50000   0.56078   0.00000  Uiso   1.00
C27    C     0.93791   0.50000   0.37973   0.00000  Uiso   1.00
C28    C     0.87883   0.50000   0.43922   0.00000  Uiso   1.00
C29    C     0.11687   0.50000   0.64927   0.00000  Uiso   1.00
C30    C     0.15076   0.50000   0.61515   0.00000  Uiso   1.00
C31    C     0.88312   0.50000   0.35073   0.00000  Uiso   1.00
C32    C     0.84924   0.50000   0.38485   0.00000  Uiso   1.00
H7     H     0.12861   0.50000   0.69154   0.00000  Uiso   1.00
H8     H     0.19324   0.50000   0.62646   0.00000  Uiso   1.00
H9     H     0.87139   0.50000   0.30846   0.00000  Uiso   1.00
H10    H     0.80675   0.50000   0.37355   0.00000  Uiso   1.00
C33    C     0.01554   0.50000   0.64034   0.00000  Uiso   1.00
C34    C     0.14083   0.50000   0.51416   0.00000  Uiso   1.00
C35    C     0.98446   0.50000   0.35967   0.00000  Uiso   1.00
C36    C     0.85917   0.50000   0.48584   0.00000  Uiso   1.00
C37    C     0.02108   0.50000   0.69796   0.00000  Uiso   1.00
C38    C     0.19865   0.50000   0.51911   0.00000  Uiso   1.00
C39    C     0.97892   0.50000   0.30204   0.00000  Uiso   1.00
C40    C     0.80135   0.50000   0.48089   0.00000  Uiso   1.00
C41    C     0.02366   0.32018   0.72547   0.00000  Uiso   1.00
C42    C     0.22623   0.67980   0.52126   0.00000  Uiso   1.00
C43    C     0.97634   0.32018   0.27453   0.00000  Uiso   1.00
C44    C     0.77377   0.67980   0.47874   0.00000  Uiso   1.00
C45    C     0.97634   0.67982   0.27453   0.00000  Uiso   1.00
C46    C     0.77377   0.32020   0.47874   0.00000  Uiso   1.00
C47    C     0.02366   0.67982   0.72547   0.00000  Uiso   1.00
C48    C     0.22623   0.32020   0.52126   0.00000  Uiso   1.00
H11    H     0.02176   0.18086   0.70446   0.00000  Uiso   1.00
H12    H     0.20514   0.81911   0.51960   0.00000  Uiso   1.00
H13    H     0.97824   0.18086   0.29554   0.00000  Uiso   1.00
H14    H     0.79486   0.81911   0.48040   0.00000  Uiso   1.00
H15    H     0.97824   0.81914   0.29554   0.00000  Uiso   1.00
H16    H     0.79486   0.18090   0.48040   0.00000  Uiso   1.00
H17    H     0.02176   0.81914   0.70446   0.00000  Uiso   1.00
H18    H     0.20514   0.18090   0.51960   0.00000  Uiso   1.00
C49    C     0.02887   0.32056   0.78021   0.00000  Uiso   1.00
C50    C     0.28111   0.67947   0.52556   0.00000  Uiso   1.00
C51    C     0.97112   0.32056   0.21980   0.00000  Uiso   1.00
C52    C     0.71889   0.67947   0.47444   0.00000  Uiso   1.00
C53    C     0.97112   0.67944   0.21980   0.00000  Uiso   1.00
C54    C     0.71889   0.32053   0.47444   0.00000  Uiso   1.00
C55    C     0.02887   0.67944   0.78021   0.00000  Uiso   1.00
C56    C     0.28111   0.32053   0.52556   0.00000  Uiso   1.00
H19    H     0.03115   0.18252   0.80170   0.00000  Uiso   1.00
H20    H     0.30257   0.81770   0.52732   0.00000  Uiso   1.00
H21    H     0.96885   0.18252   0.19831   0.00000  Uiso   1.00
H22    H     0.69743   0.81770   0.47268   0.00000  Uiso   1.00
H23    H     0.96885   0.81748   0.19831   0.00000  Uiso   1.00
H24    H     0.69743   0.18230   0.47268   0.00000  Uiso   1.00
H25    H     0.03115   0.81748   0.80170   0.00000  Uiso   1.00
H26    H     0.30257   0.18230   0.52732   0.00000  Uiso   1.00
C57    C     0.03124   0.50000   0.80755   0.00000  Uiso   1.00
C58    C     0.30854   0.50000   0.52749   0.00000  Uiso   1.00
C59    C     0.96875   0.50000   0.19245   0.00000  Uiso   1.00
C60    C     0.69146   0.50000   0.47251   0.00000  Uiso   1.00
O1     O     0.43508   0.50000   0.40071   0.00000  Uiso   1.00
H27    H     0.46047   0.50000   0.58048   0.00000  Uiso   1.00
H28    H     0.63737   0.50000   0.54854   0.00000  Uiso   1.00
H29    H     0.91621   0.50000   0.93657   0.00000  Uiso   1.00
O2     O     0.10003   0.50000   0.97143   0.00000  Uiso   1.00
H30    H     0.04265   0.50000   0.13687   0.00000  Uiso   1.00
H31    H     0.03846   0.50000   0.53799   0.00000  Uiso   1.00
H32    H     0.45503   0.50000   0.37032   0.00000  Uiso   1.00
H33    H     0.10288   0.50000   0.93323   0.00000  Uiso   1.00
O3     O     0.56492   0.50000   0.59929   0.00000  Uiso   1.00
H34    H     0.53953   0.50000   0.41952   0.00000  Uiso   1.00
H35    H     0.36263   0.50000   0.45147   0.00000  Uiso   1.00
H36    H     0.08379   0.50000   0.06343   0.00000  Uiso   1.00
O4     O     0.89997   0.50000   0.02857   0.00000  Uiso   1.00
H37    H     0.95735   0.50000   0.86313   0.00000  Uiso   1.00
H38    H     0.96154   0.50000   0.46201   0.00000  Uiso   1.00
H39    H     0.54497   0.50000   0.62968   0.00000  Uiso   1.00
H40    H     0.89712   0.50000   0.06677   0.00000  Uiso   1.00
loop_
_geom_bond_atom_site_label_1
_geom_bond_atom_site_label_2
_geom_bond_distance
_geom_bond_site_symmetry_2
_ccdc_geom_bond_type
C1     C7      1.401   .     S
C1     O1      1.398   .     S
C1     C13     1.407   .     S
C2     H29     1.083   .     S
C3     C15     1.407   .     S
C3     C5      1.401   .     S
C3     O3      1.398   .     S
C4     H36     1.083   .     S
C5     C13     1.406   .     S
C5     H27     1.082   .     S
C6     O2      1.398   .     S
C6     C14     1.427   .     S
C7     H34     1.082   .     S
C7     C15     1.406   .     S
C8     O4      1.398   .     S
C8     C16     1.427   .     S
C9     H28     1.087   .     S
C9     C15     1.478   .     S
C9     N3      1.299   .     S
C10    H30     1.087   .     S
C11    N1      1.299   .     S
C11    C13     1.478   .     S
C11    H35     1.087   .     S
C12    H37     1.087   .     S
N1     C58     1.427   .     S
N2     C57     1.428   .     S
N3     C60     1.427   .     S
N4     C59     1.428   .     S
N5     C17     1.339   .     S
N5     H1      0.959   .     S
N5     C20     1.339   .     S
N6     H2      0.959   .     S
N6     C18     1.339   .     S
N6     C19     1.339   .     S
C17    C21     1.390   .     S
C18    C22     1.390   .     S
C18    C34     1.544   .     S
C19    C23     1.390   .     S
C20    C36     1.544   .     S
C20    C24     1.390   .     S
C21    H3      1.081   .     S
C21    C24     1.405   .     S
C22    C23     1.405   .     S
C22    H4      1.081   .     S
C23    H5      1.081   .     S
C24    H6      1.081   .     S
N7     C25     1.415   .     S
N7     C26     1.415   .     S
N7     H31     0.963   .     S
N8     H38     0.963   .     S
N8     C28     1.415   .     S
N8     C27     1.415   .     S
C25    C29     1.476   .     S
C25    C33     1.391   .     S
C26    C30     1.476   .     S
C26    C34     1.391   .     S
C27    C31     1.476   .     S
C27    C35     1.391   .     S
C28    C36     1.391   .     S
C28    C32     1.476   .     S
C29    H7      1.082   .     S
C29    C30     1.350   .     S
C30    H8      1.082   .     S
C31    C32     1.350   .     S
C31    H9      1.082   .     S
C32    H10     1.082   .     S
C33    C37     1.473   .     S
C34    C38     1.473   .     S
C35    C39     1.473   .     S
C36    C40     1.473   .     S
C37    C41     1.402   .     S
C37    C47     1.402   .     S
C38    C48     1.402   .     S
C38    C42     1.402   .     S
C39    C45     1.402   .     S
C39    C43     1.402   .     S
C40    C46     1.402   .     S
C40    C44     1.402   .     S
C41    H11     1.082   .     S
C41    C49     1.400   .     S
C42    C50     1.399   .     S
C42    H12     1.083   .     S
C43    C51     1.400   .     S
C43    H13     1.082   .     S
C44    C52     1.399   .     S
C44    H14     1.082   .     S
C45    C53     1.400   .     S
C45    H15     1.082   .     S
C46    C54     1.399   .     S
C46    H16     1.082   .     S
C47    H17     1.082   .     S
C47    C55     1.400   .     S
C48    C56     1.399   .     S
C48    H18     1.083   .     S
C49    C57     1.398   .     S
C49    H19     1.081   .     S
C50    H20     1.081   .     S
C50    C58     1.398   .     S
C51    C59     1.398   .     S
C51    H21     1.081   .     S
C52    H22     1.081   .     S
C52    C60     1.398   .     S
C53    H23     1.081   .     S
C53    C59     1.398   .     S
C54    C60     1.398   .     S
C54    H24     1.081   .     S
C55    H25     1.081   .     S
C55    C57     1.398   .     S
C56    C58     1.398   .     S
C56    H26     1.081   .     S
O1     H32     1.015   .     S
O2     H33     1.005   .     S
O3     H39     1.015   .     S
O4     H40     1.005   .     S
