data_DhaTab
_audit_creation_date              2016-12-13
_audit_creation_method            'Materials Studio'
_symmetry_space_group_name_H-M    'P1'
_symmetry_Int_Tables_number       1
_symmetry_cell_setting            triclinic
loop_
_symmetry_equiv_pos_as_xyz
  x,y,z
_cell_length_a                    39.4508
_cell_length_b                    39.4508
_cell_length_c                    3.4000
_cell_angle_alpha                 90.0000
_cell_angle_beta                  90.0000
_cell_angle_gamma                 120.0000
loop_
_atom_site_label
_atom_site_type_symbol
_atom_site_fract_x
_atom_site_fract_y
_atom_site_fract_z
_atom_site_U_iso_or_equiv
_atom_site_adp_type
_atom_site_occupancy
N1     N     0.55243   0.11753   0.50000   0.00000  Uiso   1.00
C2     C     0.56347   0.08600   0.50000   0.00000  Uiso   1.00
C3     C     0.53198   0.04343   0.50000   0.00000  Uiso   1.00
N4     N     0.88247   0.43490   0.50000   0.00000  Uiso   1.00
C5     C     0.91400   0.47747   0.50000   0.00000  Uiso   1.00
C6     C     0.95657   0.48854   0.50000   0.00000  Uiso   1.00
N7     N     0.56510   0.44757   0.50000   0.00000  Uiso   1.00
C8     C     0.52253   0.43653   0.50000   0.00000  Uiso   1.00
C9     C     0.51146   0.46802   0.50000   0.00000  Uiso   1.00
N10    N     0.44757   0.88247   0.50000   0.00000  Uiso   1.00
C11    C     0.43653   0.91400   0.50000   0.00000  Uiso   1.00
C12    C     0.46802   0.95657   0.50000   0.00000  Uiso   1.00
N13    N     0.11753   0.56510   0.50000   0.00000  Uiso   1.00
C14    C     0.08600   0.52253   0.50000   0.00000  Uiso   1.00
C15    C     0.04343   0.51146   0.50000   0.00000  Uiso   1.00
N16    N     0.43490   0.55243   0.50000   0.00000  Uiso   1.00
C17    C     0.47747   0.56347   0.50000   0.00000  Uiso   1.00
C18    C     0.48854   0.53198   0.50000   0.00000  Uiso   1.00
C19    C     0.54349   1.01146   0.50000   0.00000  Uiso   1.00
C20    C     0.51148   0.96799   0.50000   0.00000  Uiso   1.00
H21    H     0.57569   1.01999   0.50000   0.00000  Uiso   1.00
O22    O     0.51998   0.94427   0.50000   0.00000  Uiso   1.00
H23    H     0.41624   0.50247   0.50000   0.00000  Uiso   1.00
C24    C     0.38030   0.81656   0.50000   0.00000  Uiso   1.00
C25    C     0.35844   0.77594   0.50000   0.00000  Uiso   1.00
H26    H     0.36459   0.83420   0.50000   0.00000  Uiso   1.00
H27    H     0.32510   0.76054   0.50000   0.00000  Uiso   1.00
C28    C     0.18597   0.62968   0.50000   0.00000  Uiso   1.00
C29    C     0.22662   0.64918   0.50000   0.00000  Uiso   1.00
H30    H     0.17028   0.64735   0.50000   0.00000  Uiso   1.00
H31    H     0.24398   0.68254   0.50000   0.00000  Uiso   1.00
C32    C     0.29216   0.64729   0.50000   0.00000  Uiso   1.00
C33    C     0.16311   0.58655   0.50000   0.00000  Uiso   1.00
C34    C     0.24805   0.62653   0.50000   0.00000  Uiso   1.00
C35    C     0.31178   0.62595   0.50000   0.00000  Uiso   1.00
H36    H     0.29819   0.70560   0.50000   0.00000  Uiso   1.00
C37    C    -0.01146   0.53203   0.50000   0.00000  Uiso   1.00
C38    C     0.03201   0.54349   0.50000   0.00000  Uiso   1.00
H39    H    -0.01999   0.55570   0.50000   0.00000  Uiso   1.00
O40    O     0.05573   0.57571   0.50000   0.00000  Uiso   1.00
H41    H     0.49753   0.91377   0.50000   0.00000  Uiso   1.00
C42    C     0.18344   0.56374   0.50000   0.00000  Uiso   1.00
C43    C     0.22406   0.58250   0.50000   0.00000  Uiso   1.00
H44    H     0.16580   0.53039   0.50000   0.00000  Uiso   1.00
H45    H     0.23946   0.56456   0.50000   0.00000  Uiso   1.00
C46    C     0.37032   0.55628   0.50000   0.00000  Uiso   1.00
C47    C     0.35082   0.57744   0.50000   0.00000  Uiso   1.00
H48    H     0.35265   0.52293   0.50000   0.00000  Uiso   1.00
H49    H     0.31746   0.56145   0.50000   0.00000  Uiso   1.00
C50    C     0.35271   0.64487   0.50000   0.00000  Uiso   1.00
C51    C     0.41345   0.57656   0.50000   0.00000  Uiso   1.00
C52    C     0.37347   0.62152   0.50000   0.00000  Uiso   1.00
C53    C     0.37405   0.68583   0.50000   0.00000  Uiso   1.00
H54    H     0.29440   0.59259   0.50000   0.00000  Uiso   1.00
C55    C     0.46797   0.45651   0.50000   0.00000  Uiso   1.00
C56    C     0.45651   0.48852   0.50000   0.00000  Uiso   1.00
H57    H     0.44430   0.42431   0.50000   0.00000  Uiso   1.00
O58    O     0.42429   0.48002   0.50000   0.00000  Uiso   1.00
H59    H     0.08623   0.58376   0.50000   0.00000  Uiso   1.00
C60    C     0.43626   0.61970   0.50000   0.00000  Uiso   1.00
C61    C     0.41750   0.64156   0.50000   0.00000  Uiso   1.00
H62    H     0.46961   0.63541   0.50000   0.00000  Uiso   1.00
H63    H     0.43544   0.67490   0.50000   0.00000  Uiso   1.00
C64    C     0.44372   0.81403   0.50000   0.00000  Uiso   1.00
C65    C     0.42256   0.77338   0.50000   0.00000  Uiso   1.00
H66    H     0.47707   0.82972   0.50000   0.00000  Uiso   1.00
H67    H     0.43855   0.75602   0.50000   0.00000  Uiso   1.00
C68    C     0.35513   0.70784   0.50000   0.00000  Uiso   1.00
C69    C     0.42344   0.83689   0.50000   0.00000  Uiso   1.00
C70    C     0.37848   0.75195   0.50000   0.00000  Uiso   1.00
C71    C     0.31417   0.68822   0.50000   0.00000  Uiso   1.00
H72    H     0.40741   0.70181   0.50000   0.00000  Uiso   1.00
H73    H     0.49872   0.40439   0.50000   0.00000  Uiso   1.00
C74    C     0.45651  -0.01146   0.50000   0.00000  Uiso   1.00
C75    C     0.48852   0.03201   0.50000   0.00000  Uiso   1.00
H76    H     0.42431  -0.01999   0.50000   0.00000  Uiso   1.00
O77    O     0.48002   0.05573   0.50000   0.00000  Uiso   1.00
H78    H     0.58376   0.49753   0.50000   0.00000  Uiso   1.00
C79    C     0.61970   0.18344   0.50000   0.00000  Uiso   1.00
C80    C     0.64156   0.22406   0.50000   0.00000  Uiso   1.00
H81    H     0.63541   0.16580   0.50000   0.00000  Uiso   1.00
H82    H     0.67490   0.23946   0.50000   0.00000  Uiso   1.00
C83    C     0.81403   0.37032   0.50000   0.00000  Uiso   1.00
C84    C     0.77338   0.35082   0.50000   0.00000  Uiso   1.00
H85    H     0.82972   0.35265   0.50000   0.00000  Uiso   1.00
H86    H     0.75602   0.31746   0.50000   0.00000  Uiso   1.00
C87    C     0.70784   0.35271   0.50000   0.00000  Uiso   1.00
C88    C     0.83689   0.41345   0.50000   0.00000  Uiso   1.00
C89    C     0.75195   0.37347   0.50000   0.00000  Uiso   1.00
C90    C     0.68822   0.37405   0.50000   0.00000  Uiso   1.00
H91    H     0.70181   0.29440   0.50000   0.00000  Uiso   1.00
C92    C     1.01146   0.46797   0.50000   0.00000  Uiso   1.00
C93    C     0.96799   0.45651   0.50000   0.00000  Uiso   1.00
H94    H     1.01999   0.44430   0.50000   0.00000  Uiso   1.00
O95    O     0.94427   0.42429   0.50000   0.00000  Uiso   1.00
H96    H     0.50247   0.08623   0.50000   0.00000  Uiso   1.00
C97    C     0.81656   0.43626   0.50000   0.00000  Uiso   1.00
C98    C     0.77594   0.41750   0.50000   0.00000  Uiso   1.00
H99    H     0.83420   0.46961   0.50000   0.00000  Uiso   1.00
H100   H     0.76054   0.43544   0.50000   0.00000  Uiso   1.00
C101   C     0.62968   0.44372   0.50000   0.00000  Uiso   1.00
C102   C     0.64918   0.42256   0.50000   0.00000  Uiso   1.00
H103   H     0.64735   0.47707   0.50000   0.00000  Uiso   1.00
H104   H     0.68254   0.43855   0.50000   0.00000  Uiso   1.00
C105   C     0.64729   0.35513   0.50000   0.00000  Uiso   1.00
C106   C     0.58655   0.42344   0.50000   0.00000  Uiso   1.00
C107   C     0.62653   0.37848   0.50000   0.00000  Uiso   1.00
C108   C     0.62595   0.31417   0.50000   0.00000  Uiso   1.00
H109   H     0.70560   0.40741   0.50000   0.00000  Uiso   1.00
C110   C     0.53203   0.54349   0.50000   0.00000  Uiso   1.00
C111   C     0.54349   0.51148   0.50000   0.00000  Uiso   1.00
H112   H     0.55570   0.57569   0.50000   0.00000  Uiso   1.00
O113   O     0.57571   0.51998   0.50000   0.00000  Uiso   1.00
H114   H     0.91377   0.41624   0.50000   0.00000  Uiso   1.00
C115   C     0.56374   0.38030   0.50000   0.00000  Uiso   1.00
C116   C     0.58250   0.35844   0.50000   0.00000  Uiso   1.00
H117   H     0.53039   0.36459   0.50000   0.00000  Uiso   1.00
H118   H     0.56456   0.32510   0.50000   0.00000  Uiso   1.00
C119   C     0.55628   0.18597   0.50000   0.00000  Uiso   1.00
C120   C     0.57744   0.22662   0.50000   0.00000  Uiso   1.00
H121   H     0.52293   0.17028   0.50000   0.00000  Uiso   1.00
H122   H     0.56145   0.24398   0.50000   0.00000  Uiso   1.00
C123   C     0.64487   0.29216   0.50000   0.00000  Uiso   1.00
C124   C     0.57656   0.16311   0.50000   0.00000  Uiso   1.00
C125   C     0.62152   0.24805   0.50000   0.00000  Uiso   1.00
C126   C     0.68583   0.31178   0.50000   0.00000  Uiso   1.00
H127   H     0.59259   0.29819   0.50000   0.00000  Uiso   1.00
H128   H     0.50128   0.59561   0.50000   0.00000  Uiso   1.00
H129   H     0.59561   0.09433   0.50000   0.00000  Uiso   1.00
H130   H     0.90567   0.50128   0.50000   0.00000  Uiso   1.00
H131   H     0.40439   0.90567   0.50000   0.00000  Uiso   1.00
H132   H     0.09433   0.49872   0.50000   0.00000  Uiso   1.00
loop_
_geom_bond_atom_site_label_1
_geom_bond_atom_site_label_2
_geom_bond_distance
_geom_bond_site_symmetry_2
_ccdc_geom_bond_type
N1     C124    1.558   .     S
N1     C2      1.509   .     S
C2     H129    1.140   .     S
C2     C3      1.509   .     S
C3     C75     1.539   .     S
N4     C5      1.509   .     S
N4     C88     1.558   .     S
C5     C6      1.509   .     S
C5     H130    1.140   .     S
C6     C93     1.539   .     S
N7     C8      1.509   .     S
N7     C106    1.558   .     S
C8     C9      1.509   .     S
C8     H73     1.140   .     S
C9     C111    1.539   .     S
C9     C55     1.539   .     S
N10    C11     1.509   .     S
N10    C69     1.558   .     S
C11    H131    1.140   .     S
C11    C12     1.509   .     S
C12    C20     1.539   .     S
N13    C14     1.509   .     S
N13    C33     1.558   .     S
C14    H132    1.140   .     S
C14    C15     1.509   .     S
C15    C38     1.539   .     S
N16    C17     1.509   .     S
N16    C51     1.558   .     S
C17    C18     1.509   .     S
C17    H128    1.140   .     S
C18    C110    1.539   .     S
C18    C56     1.539   .     S
C19    H21     1.140   .     S
C19    C20     1.540   .     S
C20    O22     1.141   .     S
O22    H41     1.080   .     S
H23    O58     1.080   .     S
C24    H26     1.140   .     S
C24    C69     1.475   .     S
C24    C25     1.389   .     S
C25    H27     1.140   .     S
C25    C70     1.506   .     S
C28    C29     1.389   .     S
C28    H30     1.140   .     S
C28    C33     1.474   .     S
C29    C34     1.506   .     S
C29    H31     1.140   .     S
C32    C35     1.400   .     S
C32    C34     1.508   .     S
C32    C71     1.400   .     S
C33    C42     1.475   .     S
C34    C43     1.506   .     S
C35    C50     1.400   .     S
C35    H54     1.140   .     S
H36    C71     1.140   .     S
C37    H39     1.140   .     S
C37    C38     1.540   .     S
C38    O40     1.141   .     S
O40    H59     1.080   .     S
C42    H44     1.140   .     S
C42    C43     1.389   .     S
C43    H45     1.140   .     S
C46    H48     1.140   .     S
C46    C51     1.474   .     S
C46    C47     1.389   .     S
C47    C52     1.506   .     S
C47    H49     1.140   .     S
C50    C53     1.400   .     S
C50    C52     1.508   .     S
C51    C60     1.475   .     S
C52    C61     1.506   .     S
C53    C68     1.400   .     S
C53    H72     1.140   .     S
C55    H57     1.140   .     S
C55    C56     1.540   .     S
C56    O58     1.141   .     S
C60    C61     1.389   .     S
C60    H62     1.140   .     S
C61    H63     1.140   .     S
C64    C69     1.474   .     S
C64    H66     1.140   .     S
C64    C65     1.389   .     S
C65    C70     1.506   .     S
C65    H67     1.140   .     S
C68    C71     1.400   .     S
C68    C70     1.508   .     S
C74    H76     1.140   .     S
C74    C75     1.540   .     S
C75    O77     1.141   .     S
O77    H96     1.080   .     S
H78    O113    1.080   .     S
C79    C124    1.475   .     S
C79    H81     1.140   .     S
C79    C80     1.389   .     S
C80    C125    1.506   .     S
C80    H82     1.140   .     S
C83    C88     1.474   .     S
C83    H85     1.140   .     S
C83    C84     1.389   .     S
C84    H86     1.140   .     S
C84    C89     1.506   .     S
C87    C126    1.400   .     S
C87    C90     1.400   .     S
C87    C89     1.508   .     S
C88    C97     1.475   .     S
C89    C98     1.506   .     S
C90    H109    1.140   .     S
C90    C105    1.400   .     S
H91    C126    1.140   .     S
C92    H94     1.140   .     S
C92    C93     1.540   .     S
C93    O95     1.141   .     S
O95    H114    1.080   .     S
C97    C98     1.389   .     S
C97    H99     1.140   .     S
C98    H100    1.140   .     S
C101   C102    1.389   .     S
C101   C106    1.474   .     S
C101   H103    1.140   .     S
C102   H104    1.140   .     S
C102   C107    1.506   .     S
C105   C108    1.400   .     S
C105   C107    1.508   .     S
C106   C115    1.475   .     S
C107   C116    1.506   .     S
C108   H127    1.140   .     S
C108   C123    1.400   .     S
C110   H112    1.140   .     S
C110   C111    1.540   .     S
C111   O113    1.141   .     S
C115   H117    1.140   .     S
C115   C116    1.389   .     S
C116   H118    1.140   .     S
C119   H121    1.140   .     S
C119   C124    1.474   .     S
C119   C120    1.389   .     S
C120   H122    1.140   .     S
C120   C125    1.506   .     S
C123   C126    1.400   .     S
C123   C125    1.508   .     S
