data_DhaTab-25
_audit_creation_date              2016-12-13
_audit_creation_method            'Materials Studio'
_symmetry_space_group_name_H-M    'P1'
_symmetry_Int_Tables_number       1
_symmetry_cell_setting            triclinic
loop_
_symmetry_equiv_pos_as_xyz
  x,y,z
_cell_length_a                    37.9379
_cell_length_b                    37.9379
_cell_length_c                    3.4793
_cell_angle_alpha                 90.0000
_cell_angle_beta                  90.0000
_cell_angle_gamma                 120.0000
loop_
_atom_site_label
_atom_site_type_symbol
_atom_site_fract_x
_atom_site_fract_y
_atom_site_fract_z
_atom_site_U_iso_or_equiv
_atom_site_adp_type
_atom_site_occupancy
N1     N     0.88734   0.45095   0.50000   0.00000  Uiso   1.00
N2     N     0.11267   0.54873   0.50000   0.00000  Uiso   1.00
N3     N     0.54905   0.43639   0.50000   0.00000  Uiso   1.00
N4     N     0.45127   0.56394   0.50000   0.00000  Uiso   1.00
N5     N     0.56361   0.11266   0.50000   0.00000  Uiso   1.00
N6     N     0.43606   0.88733   0.50000   0.00000  Uiso   1.00
C1     C     0.91395   0.43888   0.50000   0.00000  Uiso   1.00
C2     C     0.56112   0.47507   0.50000   0.00000  Uiso   1.00
C3     C     0.52493   0.08605   0.50000   0.00000  Uiso   1.00
C4     C     0.95816   0.46930   0.50000   0.00000  Uiso   1.00
C5     C     0.04180   0.53032   0.50000   0.00000  Uiso   1.00
C6     C     0.53070   0.48887   0.50000   0.00000  Uiso   1.00
C7     C     0.46968   0.51148   0.50000   0.00000  Uiso   1.00
C8     C     0.51113   0.04183   0.50000   0.00000  Uiso   1.00
C9     C     0.48852   0.95819   0.50000   0.00000  Uiso   1.00
C10    C     0.98887   0.45835   0.50000   0.00000  Uiso   1.00
C11    C     0.02968   0.48867   0.50000   0.00000  Uiso   1.00
C12    C     0.54165   0.53052   0.50000   0.00000  Uiso   1.00
C13    C     0.51133   0.54100   0.50000   0.00000  Uiso   1.00
C14    C     0.46948   0.01113   0.50000   0.00000  Uiso   1.00
C15    C     0.45900   0.97032   0.50000   0.00000  Uiso   1.00
O1     O     0.98134   0.41833   0.50000   0.00000  Uiso   1.00
H1     H     0.05199   0.47886   0.50000   0.00000  Uiso   1.00
O2     O     0.58167   0.56301   0.50000   0.00000  Uiso   1.00
H2     H     0.52114   0.57313   0.50000   0.00000  Uiso   1.00
O3     O     0.43699   0.01866   0.50000   0.00000  Uiso   1.00
H3     H     0.42687   0.94801   0.50000   0.00000  Uiso   1.00
C16    C     0.01109   0.54126   0.50000   0.00000  Uiso   1.00
C17    C     0.97029   0.51094   0.50000   0.00000  Uiso   1.00
C18    C     0.45874   0.46983   0.50000   0.00000  Uiso   1.00
C19    C     0.48906   0.45935   0.50000   0.00000  Uiso   1.00
C20    C     0.53017   0.98891   0.50000   0.00000  Uiso   1.00
C21    C     0.54065   0.02971   0.50000   0.00000  Uiso   1.00
O4     O     0.01860   0.58126   0.50000   0.00000  Uiso   1.00
H4     H     0.94799   0.52076   0.50000   0.00000  Uiso   1.00
O5     O     0.41873   0.43733   0.50000   0.00000  Uiso   1.00
H5     H     0.47924   0.42722   0.50000   0.00000  Uiso   1.00
O6     O     0.56267   0.98140   0.50000   0.00000  Uiso   1.00
H6     H     0.57278   0.05201   0.50000   0.00000  Uiso   1.00
C22    C     0.17904   0.55407   0.50000   0.00000  Uiso   1.00
C23    C     0.82307   0.38347   0.50000   0.00000  Uiso   1.00
C24    C     0.44593   0.62497   0.50000   0.00000  Uiso   1.00
C25    C     0.61653   0.43960   0.50000   0.00000  Uiso   1.00
C26    C     0.37503   0.82096   0.50000   0.00000  Uiso   1.00
C27    C     0.56040   0.17693   0.50000   0.00000  Uiso   1.00
C28    C     0.22157   0.57620   0.50000   0.00000  Uiso   1.00
C29    C     0.78051   0.36111   0.50000   0.00000  Uiso   1.00
C30    C     0.42379   0.64537   0.50000   0.00000  Uiso   1.00
C31    C     0.63889   0.41939   0.50000   0.00000  Uiso   1.00
C32    C     0.35463   0.77843   0.50000   0.00000  Uiso   1.00
C33    C     0.58060   0.21949   0.50000   0.00000  Uiso   1.00
H7     H     0.16337   0.52114   0.50000   0.00000  Uiso   1.00
H8     H     0.83926   0.36686   0.50000   0.00000  Uiso   1.00
H9     H     0.47886   0.64223   0.50000   0.00000  Uiso   1.00
H10    H     0.63314   0.47240   0.50000   0.00000  Uiso   1.00
H11    H     0.35777   0.83663   0.50000   0.00000  Uiso   1.00
H12    H     0.52760   0.16074   0.50000   0.00000  Uiso   1.00
H13    H     0.23613   0.55815   0.50000   0.00000  Uiso   1.00
H14    H     0.76753   0.32864   0.50000   0.00000  Uiso   1.00
H15    H     0.44185   0.67799   0.50000   0.00000  Uiso   1.00
H16    H     0.67135   0.43888   0.50000   0.00000  Uiso   1.00
H17    H     0.32201   0.76387   0.50000   0.00000  Uiso   1.00
H18    H     0.56112   0.23247   0.50000   0.00000  Uiso   1.00
C34    C     0.38374   0.56061   0.50000   0.00000  Uiso   1.00
C35    C     0.62470   0.17897   0.50000   0.00000  Uiso   1.00
C36    C     0.43939   0.82313   0.50000   0.00000  Uiso   1.00
C37    C     0.82103   0.44573   0.50000   0.00000  Uiso   1.00
C38    C     0.17687   0.61626   0.50000   0.00000  Uiso   1.00
C39    C     0.55427   0.37530   0.50000   0.00000  Uiso   1.00
C40    C     0.36131   0.58075   0.50000   0.00000  Uiso   1.00
C41    C     0.64517   0.22150   0.50000   0.00000  Uiso   1.00
C42    C     0.41925   0.78056   0.50000   0.00000  Uiso   1.00
C43    C     0.77849   0.42366   0.50000   0.00000  Uiso   1.00
C44    C     0.21944   0.63869   0.50000   0.00000  Uiso   1.00
C45    C     0.57634   0.35483   0.50000   0.00000  Uiso   1.00
H19    H     0.36718   0.52781   0.50000   0.00000  Uiso   1.00
H20    H     0.64189   0.16323   0.50000   0.00000  Uiso   1.00
H21    H     0.47219   0.83937   0.50000   0.00000  Uiso   1.00
H22    H     0.83677   0.47866   0.50000   0.00000  Uiso   1.00
H23    H     0.16063   0.63282   0.50000   0.00000  Uiso   1.00
H24    H     0.52134   0.35811   0.50000   0.00000  Uiso   1.00
H25    H     0.32885   0.56121   0.50000   0.00000  Uiso   1.00
H26    H     0.67778   0.23601   0.50000   0.00000  Uiso   1.00
H27    H     0.43879   0.76764   0.50000   0.00000  Uiso   1.00
H28    H     0.76399   0.44177   0.50000   0.00000  Uiso   1.00
H29    H     0.23236   0.67115   0.50000   0.00000  Uiso   1.00
H30    H     0.55823   0.32222   0.50000   0.00000  Uiso   1.00
C46    C     0.35619   0.64597   0.50000   0.00000  Uiso   1.00
C47    C     0.64590   0.28978   0.50000   0.00000  Uiso   1.00
C48    C     0.35403   0.71022   0.50000   0.00000  Uiso   1.00
C49    C     0.71022   0.35613   0.50000   0.00000  Uiso   1.00
C50    C     0.28978   0.64381   0.50000   0.00000  Uiso   1.00
C51    C     0.64387   0.35410   0.50000   0.00000  Uiso   1.00
C52    C     0.42639   0.58268   0.50000   0.00000  Uiso   1.00
C53    C     0.58242   0.15630   0.50000   0.00000  Uiso   1.00
C54    C     0.41732   0.84370   0.50000   0.00000  Uiso   1.00
C55    C     0.84370   0.42612   0.50000   0.00000  Uiso   1.00
C56    C     0.15630   0.57361   0.50000   0.00000  Uiso   1.00
C57    C     0.57388   0.41758   0.50000   0.00000  Uiso   1.00
C58    C     0.38058   0.62389   0.50000   0.00000  Uiso   1.00
C59    C     0.62376   0.24331   0.50000   0.00000  Uiso   1.00
C60    C     0.37611   0.75669   0.50000   0.00000  Uiso   1.00
C61    C     0.75669   0.38045   0.50000   0.00000  Uiso   1.00
C62    C     0.24331   0.61942   0.50000   0.00000  Uiso   1.00
C63    C     0.61955   0.37624   0.50000   0.00000  Uiso   1.00
C64    C     0.37561   0.68885   0.50000   0.00000  Uiso   1.00
C65    C     0.62439   0.31121   0.50000   0.00000  Uiso   1.00
C66    C     0.31115   0.68676   0.50000   0.00000  Uiso   1.00
C67    C     0.68879   0.31318   0.50000   0.00000  Uiso   1.00
C68    C     0.31324   0.62439   0.50000   0.00000  Uiso   1.00
C69    C     0.68682   0.37561   0.50000   0.00000  Uiso   1.00
H31    H     0.29794   0.59220   0.50000   0.00000  Uiso   1.00
H32    H     0.70563   0.29783   0.50000   0.00000  Uiso   1.00
H33    H     0.40780   0.70574   0.50000   0.00000  Uiso   1.00
H34    H     0.70217   0.40780   0.50000   0.00000  Uiso   1.00
H35    H     0.29426   0.70206   0.50000   0.00000  Uiso   1.00
H36    H     0.59220   0.29437   0.50000   0.00000  Uiso   1.00
H37    H     0.04782   0.60372   0.50000   0.00000  Uiso   1.00
H38    H     0.39628   0.44410   0.50000   0.00000  Uiso   1.00
H39    H     0.55590   0.95218   0.50000   0.00000  Uiso   1.00
C70    C     0.47474   0.91398   0.50000   0.00000  Uiso   1.00
H40    H     0.90384   0.40695   0.50000   0.00000  Uiso   1.00
H41    H     0.95213   0.39587   0.50000   0.00000  Uiso   1.00
H42    H     0.40732   0.50342   0.50000   0.00000  Uiso   1.00
C71    C     0.08602   0.56076   0.50000   0.00000  Uiso   1.00
H43    H     0.59305   0.49689   0.50000   0.00000  Uiso   1.00
H44    H     0.60413   0.55626   0.50000   0.00000  Uiso   1.00
H45    H     0.49658   0.90390   0.50000   0.00000  Uiso   1.00
C72    C     0.43924   0.52526   0.50000   0.00000  Uiso   1.00
H46    H     0.50311   0.09616   0.50000   0.00000  Uiso   1.00
H47    H     0.44374   0.04787   0.50000   0.00000  Uiso   1.00
H48    H     0.09610   0.59268   0.50000   0.00000  Uiso   1.00
loop_
_geom_bond_atom_site_label_1
_geom_bond_atom_site_label_2
_geom_bond_distance
_geom_bond_site_symmetry_2
_ccdc_geom_bond_type
N1     C1      1.301   .     S
N1     C55     1.438   .     S
N2     C71     1.301   .     S
N2     C56     1.438   .     S
N3     C2      1.301   .     S
N3     C57     1.438   .     S
N4     C52     1.438   .     S
N4     C72     1.301   .     S
N5     C53     1.438   .     S
N5     C3      1.301   .     S
N6     C70     1.301   .     S
N6     C54     1.438   .     S
C1     C4      1.486   .     S
C1     H40     1.072   .     S
C2     C6      1.486   .     S
C2     H43     1.072   .     S
C3     H46     1.072   .     S
C3     C8      1.486   .     S
C4     C10     1.419   .     S
C4     C17     1.407   .     S
C5     C11     1.408   .     S
C5     C71     1.487   .     S
C5     C16     1.419   .     S
C6     C12     1.419   .     S
C6     C19     1.407   .     S
C7     C72     1.487   .     S
C7     C13     1.408   .     S
C7     C18     1.419   .     S
C8     C14     1.419   .     S
C8     C21     1.407   .     S
C9     C20     1.419   .     S
C9     C15     1.408   .     S
C9     C70     1.487   .     S
C10    O1      1.397   .     S
C11    H1      1.082   .     S
C12    C13     1.393   .     S
C12    O2      1.397   .     S
C13    H2      1.082   .     S
C14    O3      1.397   .     S
C15    H3      1.082   .     S
O1     H41     1.005   .     S
O2     H44     1.005   .     S
O3     H47     1.005   .     S
C16    O4      1.397   .     S
C17    H4      1.082   .     S
C18    O5      1.397   .     S
C18    C19     1.392   .     S
C19    H5      1.082   .     S
C20    O6      1.397   .     S
C21    H6      1.082   .     S
O4     H37     1.005   .     S
O5     H38     1.005   .     S
O6     H39     1.005   .     S
C22    C56     1.391   .     S
C22    C28     1.398   .     S
C22    H7      1.082   .     S
C23    C55     1.401   .     S
C23    C29     1.399   .     S
C23    H8      1.078   .     S
C24    C30     1.398   .     S
C24    H9      1.082   .     S
C24    C52     1.391   .     S
C25    H10     1.078   .     S
C25    C57     1.401   .     S
C25    C31     1.399   .     S
C26    C54     1.391   .     S
C26    H11     1.082   .     S
C26    C32     1.398   .     S
C27    C33     1.399   .     S
C27    C53     1.401   .     S
C27    H12     1.078   .     S
C28    H13     1.074   .     S
C28    C62     1.420   .     S
C29    H14     1.074   .     S
C29    C61     1.420   .     S
C30    C58     1.420   .     S
C30    H15     1.074   .     S
C31    H16     1.074   .     S
C31    C63     1.420   .     S
C32    C60     1.420   .     S
C32    H17     1.074   .     S
C33    C59     1.420   .     S
C33    H18     1.074   .     S
C34    C52     1.402   .     S
C34    C40     1.399   .     S
C34    H19     1.078   .     S
C35    H20     1.082   .     S
C35    C41     1.398   .     S
C35    C53     1.390   .     S
C36    C54     1.402   .     S
C36    H21     1.078   .     S
C36    C42     1.399   .     S
C37    H22     1.082   .     S
C37    C43     1.398   .     S
C37    C55     1.390   .     S
C38    C44     1.399   .     S
C38    H23     1.078   .     S
C38    C56     1.402   .     S
C39    H24     1.082   .     S
C39    C45     1.398   .     S
C39    C57     1.390   .     S
C40    H25     1.074   .     S
C40    C58     1.420   .     S
C41    H26     1.074   .     S
C41    C59     1.420   .     S
C42    C60     1.420   .     S
C42    H27     1.074   .     S
C43    C61     1.420   .     S
C43    H28     1.074   .     S
C44    C62     1.420   .     S
C44    H29     1.074   .     S
C45    C63     1.420   .     S
C45    H30     1.074   .     S
C46    C68     1.411   .     S
C46    C58     1.527   .     S
C46    C64     1.411   .     S
C47    C65     1.411   .     S
C47    C67     1.411   .     S
C47    C59     1.527   .     S
C48    C60     1.527   .     S
C48    C66     1.411   .     S
C48    C64     1.411   .     S
C49    C69     1.411   .     S
C49    C61     1.527   .     S
C49    C67     1.411   .     S
C50    C62     1.527   .     S
C50    C68     1.411   .     S
C50    C66     1.411   .     S
C51    C69     1.411   .     S
C51    C63     1.527   .     S
C51    C65     1.411   .     S
C64    H33     1.058   .     S
C65    H36     1.058   .     S
C66    H35     1.058   .     S
C67    H32     1.058   .     S
C68    H31     1.058   .     S
C69    H34     1.058   .     S
C70    H45     1.072   .     S
H42    C72     1.072   .     S
C71    H48     1.072   .     S
