data_DhaTab-23
_audit_creation_date              2016-12-13
_audit_creation_method            'Materials Studio'
_symmetry_space_group_name_H-M    'P1'
_symmetry_Int_Tables_number       1
_symmetry_cell_setting            triclinic
loop_
_symmetry_equiv_pos_as_xyz
  x,y,z
_cell_length_a                    37.8343
_cell_length_b                    37.8343
_cell_length_c                    3.4000
_cell_angle_alpha                 90.0000
_cell_angle_beta                  90.0000
_cell_angle_gamma                 120.0000
loop_
_atom_site_label
_atom_site_type_symbol
_atom_site_fract_x
_atom_site_fract_y
_atom_site_fract_z
_atom_site_U_iso_or_equiv
_atom_site_adp_type
_atom_site_occupancy
N1     N     0.44324   0.55144   0.50000   0.00000  Uiso   1.00
N2     N     0.44856   0.89180   0.50000   0.00000  Uiso   1.00
N3     N     0.10820   0.55676   0.50000   0.00000  Uiso   1.00
N4     N     0.55144   0.44324   0.50000   0.00000  Uiso   1.00
N5     N     0.89180   0.44856   0.50000   0.00000  Uiso   1.00
N6     N     0.55676   0.10820   0.50000   0.00000  Uiso   1.00
C1     C     0.42790   0.51263   0.50000   0.00000  Uiso   1.00
C2     C     0.48737   0.91527   0.50000   0.00000  Uiso   1.00
C3     C     0.08473   0.57210   0.50000   0.00000  Uiso   1.00
C4     C     0.51263   0.42790   0.50000   0.00000  Uiso   1.00
C5     C     0.91527   0.48737   0.50000   0.00000  Uiso   1.00
C6     C     0.57210   0.08473   0.50000   0.00000  Uiso   1.00
C7     C     0.44931   0.49122   0.50000   0.00000  Uiso   1.00
C8     C     0.50878   0.95809   0.50000   0.00000  Uiso   1.00
C9     C     0.04191   0.55069   0.50000   0.00000  Uiso   1.00
C10    C     0.49122   0.44931   0.50000   0.00000  Uiso   1.00
C11    C     0.95809   0.50878   0.50000   0.00000  Uiso   1.00
C12    C     0.55069   0.04191   0.50000   0.00000  Uiso   1.00
C13    C     0.42783   0.44878   0.50000   0.00000  Uiso   1.00
C14    C     0.55122   0.97905   0.50000   0.00000  Uiso   1.00
C15    C     0.02095   0.57217   0.50000   0.00000  Uiso   1.00
C16    C     0.44878   0.42783   0.50000   0.00000  Uiso   1.00
C17    C     0.97905   0.55122   0.50000   0.00000  Uiso   1.00
C18    C     0.57217   0.02095   0.50000   0.00000  Uiso   1.00
H1     H     0.39304   0.43159   0.50000   0.00000  Uiso   1.00
H2     H     0.56841   0.96145   0.50000   0.00000  Uiso   1.00
H3     H     0.03855   0.60696   0.50000   0.00000  Uiso   1.00
H4     H     0.43159   0.39304   0.50000   0.00000  Uiso   1.00
H5     H     0.96145   0.56841   0.50000   0.00000  Uiso   1.00
H6     H     0.60696   0.03855   0.50000   0.00000  Uiso   1.00
C19    C     0.51269   0.49175   0.50000   0.00000  Uiso   1.00
C20    C     0.50825   0.02095   0.50000   0.00000  Uiso   1.00
C21    C     0.97905   0.48731   0.50000   0.00000  Uiso   1.00
C22    C     0.49175   0.51269   0.50000   0.00000  Uiso   1.00
C23    C     0.02095   0.50825   0.50000   0.00000  Uiso   1.00
C24    C     0.48731   0.97905   0.50000   0.00000  Uiso   1.00
O1     O     0.54549   0.50879   0.50000   0.00000  Uiso   1.00
O2     O     0.49121   0.03670   0.50000   0.00000  Uiso   1.00
O3     O     0.96330   0.45451   0.50000   0.00000  Uiso   1.00
O4     O     0.50879   0.54549   0.50000   0.00000  Uiso   1.00
O5     O     0.03670   0.49121   0.50000   0.00000  Uiso   1.00
O6     O     0.45451   0.96330   0.50000   0.00000  Uiso   1.00
C25    C     0.55383   0.37502   0.50000   0.00000  Uiso   1.00
C26    C     0.62498   0.17881   0.50000   0.00000  Uiso   1.00
C27    C     0.82119   0.44617   0.50000   0.00000  Uiso   1.00
C28    C     0.37502   0.55383   0.50000   0.00000  Uiso   1.00
C29    C     0.17881   0.62498   0.50000   0.00000  Uiso   1.00
C30    C     0.44617   0.82119   0.50000   0.00000  Uiso   1.00
C31    C     0.57516   0.35395   0.50000   0.00000  Uiso   1.00
C32    C     0.64605   0.22121   0.50000   0.00000  Uiso   1.00
C33    C     0.77878   0.42484   0.50000   0.00000  Uiso   1.00
C34    C     0.35395   0.57516   0.50000   0.00000  Uiso   1.00
C35    C     0.22121   0.64605   0.50000   0.00000  Uiso   1.00
C36    C     0.42484   0.77878   0.50000   0.00000  Uiso   1.00
H7     H     0.51904   0.35752   0.50000   0.00000  Uiso   1.00
H8     H     0.64248   0.16152   0.50000   0.00000  Uiso   1.00
H9     H     0.83848   0.48096   0.50000   0.00000  Uiso   1.00
H10    H     0.35752   0.51904   0.50000   0.00000  Uiso   1.00
H11    H     0.16152   0.64248   0.50000   0.00000  Uiso   1.00
H12    H     0.48096   0.83848   0.50000   0.00000  Uiso   1.00
H13    H     0.55787   0.31915   0.50000   0.00000  Uiso   1.00
H14    H     0.68084   0.23871   0.50000   0.00000  Uiso   1.00
H15    H     0.76129   0.44213   0.50000   0.00000  Uiso   1.00
H16    H     0.31915   0.55787   0.50000   0.00000  Uiso   1.00
H17    H     0.23871   0.68084   0.50000   0.00000  Uiso   1.00
H18    H     0.44213   0.76129   0.50000   0.00000  Uiso   1.00
C37    C     0.55697   0.17775   0.50000   0.00000  Uiso   1.00
C38    C     0.82225   0.37922   0.50000   0.00000  Uiso   1.00
C39    C     0.62078   0.44303   0.50000   0.00000  Uiso   1.00
C40    C     0.17775   0.55697   0.50000   0.00000  Uiso   1.00
C41    C     0.37922   0.82225   0.50000   0.00000  Uiso   1.00
C42    C     0.44303   0.62078   0.50000   0.00000  Uiso   1.00
C43    C     0.57729   0.22014   0.50000   0.00000  Uiso   1.00
C44    C     0.77986   0.35715   0.50000   0.00000  Uiso   1.00
C45    C     0.64285   0.42271   0.50000   0.00000  Uiso   1.00
C46    C     0.22014   0.57729   0.50000   0.00000  Uiso   1.00
C47    C     0.35715   0.77986   0.50000   0.00000  Uiso   1.00
C48    C     0.42271   0.64285   0.50000   0.00000  Uiso   1.00
H19    H     0.52218   0.15996   0.50000   0.00000  Uiso   1.00
H20    H     0.84004   0.36222   0.50000   0.00000  Uiso   1.00
H21    H     0.63778   0.47782   0.50000   0.00000  Uiso   1.00
H22    H     0.15996   0.52218   0.50000   0.00000  Uiso   1.00
H23    H     0.36222   0.84004   0.50000   0.00000  Uiso   1.00
H24    H     0.47782   0.63778   0.50000   0.00000  Uiso   1.00
H25    H     0.55918   0.23681   0.50000   0.00000  Uiso   1.00
H26    H     0.76319   0.32237   0.50000   0.00000  Uiso   1.00
H27    H     0.67763   0.44082   0.50000   0.00000  Uiso   1.00
H28    H     0.23681   0.55918   0.50000   0.00000  Uiso   1.00
H29    H     0.32237   0.76319   0.50000   0.00000  Uiso   1.00
H30    H     0.44082   0.67763   0.50000   0.00000  Uiso   1.00
C49    C     0.64570   0.29038   0.50000   0.00000  Uiso   1.00
C50    C     0.70962   0.35532   0.50000   0.00000  Uiso   1.00
C51    C     0.64468   0.35430   0.50000   0.00000  Uiso   1.00
C52    C     0.29038   0.64570   0.50000   0.00000  Uiso   1.00
C53    C     0.35532   0.70962   0.50000   0.00000  Uiso   1.00
C54    C     0.35430   0.64468   0.50000   0.00000  Uiso   1.00
C55    C     0.57998   0.15576   0.50000   0.00000  Uiso   1.00
C56    C     0.84424   0.42422   0.50000   0.00000  Uiso   1.00
C57    C     0.57578   0.42002   0.50000   0.00000  Uiso   1.00
C58    C     0.15576   0.57998   0.50000   0.00000  Uiso   1.00
C59    C     0.42422   0.84424   0.50000   0.00000  Uiso   1.00
C60    C     0.42002   0.57578   0.50000   0.00000  Uiso   1.00
C61    C     0.62324   0.24437   0.50000   0.00000  Uiso   1.00
C62    C     0.75563   0.37887   0.50000   0.00000  Uiso   1.00
C63    C     0.62113   0.37676   0.50000   0.00000  Uiso   1.00
C64    C     0.24437   0.62324   0.50000   0.00000  Uiso   1.00
C65    C     0.37887   0.75563   0.50000   0.00000  Uiso   1.00
C66    C     0.37676   0.62113   0.50000   0.00000  Uiso   1.00
C67    C     0.68841   0.31260   0.50000   0.00000  Uiso   1.00
C68    C     0.68740   0.37581   0.50000   0.00000  Uiso   1.00
C69    C     0.62419   0.31159   0.50000   0.00000  Uiso   1.00
C70    C     0.31260   0.68841   0.50000   0.00000  Uiso   1.00
C71    C     0.37581   0.68740   0.50000   0.00000  Uiso   1.00
C72    C     0.31159   0.62419   0.50000   0.00000  Uiso   1.00
H31    H     0.58940   0.29350   0.50000   0.00000  Uiso   1.00
H32    H     0.70650   0.29590   0.50000   0.00000  Uiso   1.00
H33    H     0.70410   0.41060   0.50000   0.00000  Uiso   1.00
H34    H     0.29350   0.58940   0.50000   0.00000  Uiso   1.00
H35    H     0.29590   0.70650   0.50000   0.00000  Uiso   1.00
H36    H     0.41060   0.70410   0.50000   0.00000  Uiso   1.00
H37    H     0.56309   0.49253   0.50000   0.00000  Uiso   1.00
H38    H     0.50747   0.07056   0.50000   0.00000  Uiso   1.00
H39    H     0.92944   0.43691   0.50000   0.00000  Uiso   1.00
H40    H     0.49253   0.56309   0.50000   0.00000  Uiso   1.00
H41    H     0.07056   0.50747   0.50000   0.00000  Uiso   1.00
H42    H     0.43691   0.92944   0.50000   0.00000  Uiso   1.00
H43    H     0.39336   0.49173   0.50000   0.00000  Uiso   1.00
H44    H     0.50827   0.90162   0.50000   0.00000  Uiso   1.00
H45    H     0.09837   0.60664   0.50000   0.00000  Uiso   1.00
H46    H     0.49173   0.39336   0.50000   0.00000  Uiso   1.00
H47    H     0.90162   0.50827   0.50000   0.00000  Uiso   1.00
H48    H     0.60664   0.09837   0.50000   0.00000  Uiso   1.00
loop_
_geom_bond_atom_site_label_1
_geom_bond_atom_site_label_2
_geom_bond_distance
_geom_bond_site_symmetry_2
_ccdc_geom_bond_type
N1     C60     1.558   .     S
N1     C1      1.281   .     S
N2     C2      1.281   .     S
N2     C59     1.558   .     S
N3     C3      1.281   .     S
N3     C58     1.558   .     S
N4     C57     1.558   .     S
N4     C4      1.281   .     S
N5     C5      1.281   .     S
N5     C56     1.558   .     S
N6     C55     1.558   .     S
N6     C6      1.281   .     S
C1     H43     1.140   .     S
C1     C7      1.403   .     S
C2     H44     1.140   .     S
C2     C8      1.403   .     S
C3     C9      1.403   .     S
C3     H45     1.140   .     S
C4     H46     1.140   .     S
C4     C10     1.403   .     S
C5     H47     1.140   .     S
C5     C11     1.403   .     S
C6     H48     1.140   .     S
C6     C12     1.403   .     S
C7     C22     1.391   .     S
C7     C13     1.391   .     S
C8     C24     1.391   .     S
C8     C14     1.391   .     S
C9     C15     1.391   .     S
C9     C23     1.391   .     S
C10    C19     1.391   .     S
C10    C16     1.391   .     S
C11    C21     1.391   .     S
C11    C17     1.391   .     S
C12    C18     1.391   .     S
C12    C20     1.391   .     S
C13    H1      1.140   .     S
C13    C16     1.373   .     S
C14    H2      1.140   .     S
C15    H3      1.140   .     S
C16    H4      1.140   .     S
C17    H5      1.140   .     S
C18    H6      1.140   .     S
C19    C22     1.373   .     S
C19    O1      1.075   .     S
C20    O2      1.075   .     S
C21    O3      1.075   .     S
C22    O4      1.075   .     S
C23    O5      1.075   .     S
C24    O6      1.075   .     S
O1     H37     1.110   .     S
O2     H38     1.110   .     S
O3     H39     1.110   .     S
O4     H40     1.110   .     S
O5     H41     1.110   .     S
O6     H42     1.110   .     S
C25    H7      1.140   .     S
C25    C31     1.389   .     S
C25    C57     1.474   .     S
C26    C32     1.389   .     S
C26    C55     1.474   .     S
C26    H8      1.140   .     S
C27    H9      1.140   .     S
C27    C33     1.389   .     S
C27    C56     1.474   .     S
C28    C60     1.474   .     S
C28    C34     1.389   .     S
C28    H10     1.140   .     S
C29    C35     1.389   .     S
C29    H11     1.140   .     S
C29    C58     1.474   .     S
C30    C59     1.474   .     S
C30    H12     1.140   .     S
C30    C36     1.389   .     S
C31    C63     1.506   .     S
C31    H13     1.140   .     S
C32    H14     1.140   .     S
C32    C61     1.506   .     S
C33    C62     1.506   .     S
C33    H15     1.140   .     S
C34    H16     1.140   .     S
C34    C66     1.506   .     S
C35    C64     1.506   .     S
C35    H17     1.140   .     S
C36    H18     1.140   .     S
C36    C65     1.506   .     S
C37    C43     1.389   .     S
C37    C55     1.474   .     S
C37    H19     1.140   .     S
C38    C56     1.474   .     S
C38    C44     1.389   .     S
C38    H20     1.140   .     S
C39    H21     1.140   .     S
C39    C57     1.474   .     S
C39    C45     1.389   .     S
C40    C58     1.474   .     S
C40    C46     1.389   .     S
C40    H22     1.140   .     S
C41    H23     1.140   .     S
C41    C59     1.474   .     S
C41    C47     1.389   .     S
C42    C48     1.389   .     S
C42    H24     1.140   .     S
C42    C60     1.474   .     S
C43    H25     1.140   .     S
C43    C61     1.506   .     S
C44    C62     1.506   .     S
C44    H26     1.140   .     S
C45    H27     1.140   .     S
C45    C63     1.506   .     S
C46    H28     1.140   .     S
C46    C64     1.506   .     S
C47    H29     1.140   .     S
C47    C65     1.506   .     S
C48    C66     1.506   .     S
C48    H30     1.140   .     S
C49    C69     1.400   .     S
C49    C67     1.400   .     S
C49    C61     1.508   .     S
C50    C68     1.400   .     S
C50    C62     1.508   .     S
C50    C67     1.400   .     S
C51    C63     1.508   .     S
C51    C68     1.400   .     S
C51    C69     1.400   .     S
C52    C72     1.400   .     S
C52    C64     1.508   .     S
C52    C70     1.400   .     S
C53    C65     1.508   .     S
C53    C71     1.400   .     S
C53    C70     1.400   .     S
C54    C72     1.400   .     S
C54    C66     1.508   .     S
C54    C71     1.400   .     S
C67    H32     1.140   .     S
C68    H33     1.140   .     S
C69    H31     1.140   .     S
C70    H35     1.140   .     S
C71    H36     1.140   .     S
C72    H34     1.140   .     S
