data_DhaTph-23
_audit_creation_date              2016-12-13
_audit_creation_method            'Materials Studio'
_symmetry_space_group_name_H-M    'P1'
_symmetry_Int_Tables_number       1
_symmetry_cell_setting            triclinic
loop_
_symmetry_equiv_pos_as_xyz
  x,y,z
_cell_length_a                    6.7448
_cell_length_b                    39.9066
_cell_length_c                    32.7808
_cell_angle_alpha                 90.0000
_cell_angle_beta                  90.0000
_cell_angle_gamma                 90.0000
loop_
_atom_site_label
_atom_site_type_symbol
_atom_site_fract_x
_atom_site_fract_y
_atom_site_fract_z
_atom_site_U_iso_or_equiv
_atom_site_adp_type
_atom_site_occupancy
C1     C     0.50000   0.23970   0.59874   0.00000  Uiso   1.00
C2     C     0.50000   0.75214   0.01457   0.00000  Uiso   1.00
C3     C     0.50000   0.73970   0.09874   0.00000  Uiso   1.00
C4     C     0.50000   0.25214   0.51457   0.00000  Uiso   1.00
C5     C     0.50000   0.76030   0.59874   0.00000  Uiso   1.00
C6     C     0.50000   0.24786   0.01457   0.00000  Uiso   1.00
C7     C     0.50000   0.26030   0.09874   0.00000  Uiso   1.00
C8     C     0.50000   0.74786   0.51457   0.00000  Uiso   1.00
C9     C     0.50000   0.27871   0.54203   0.00000  Uiso   1.00
C10    C     0.50000   0.71208   0.07102   0.00000  Uiso   1.00
C11    C     0.50000   0.77871   0.04203   0.00000  Uiso   1.00
C12    C     0.50000   0.21208   0.57102   0.00000  Uiso   1.00
C13    C     0.50000   0.72129   0.54203   0.00000  Uiso   1.00
C14    C     0.50000   0.28792   0.07102   0.00000  Uiso   1.00
C15    C     0.50000   0.22129   0.04203   0.00000  Uiso   1.00
C16    C     0.50000   0.78792   0.57102   0.00000  Uiso   1.00
C17    C     0.50000   0.19308   0.49457   0.00000  Uiso   1.00
C18    C     0.50000   0.80106   0.11332   0.00000  Uiso   1.00
C19    C     0.50000   0.69308   0.99457   0.00000  Uiso   1.00
C20    C     0.50000   0.30106   0.61332   0.00000  Uiso   1.00
C21    C     0.50000   0.80692   0.49457   0.00000  Uiso   1.00
C22    C     0.50000   0.19894   0.11332   0.00000  Uiso   1.00
C23    C     0.50000   0.30692   0.99457   0.00000  Uiso   1.00
C24    C     0.50000   0.69894   0.61332   0.00000  Uiso   1.00
C25    C     0.50000   0.27279   0.58408   0.00000  Uiso   1.00
C26    C     0.50000   0.71860   0.02791   0.00000  Uiso   1.00
C27    C     0.50000   0.77279   0.08408   0.00000  Uiso   1.00
C28    C     0.50000   0.21860   0.52792   0.00000  Uiso   1.00
C29    C     0.50000   0.72721   0.58408   0.00000  Uiso   1.00
C30    C     0.50000   0.28140   0.02791   0.00000  Uiso   1.00
C31    C     0.50000   0.22721   0.08408   0.00000  Uiso   1.00
C32    C     0.50000   0.78140   0.52792   0.00000  Uiso   1.00
N1     N     0.50000   0.33196   0.60082   0.00000  Uiso   1.00
N2     N     0.50000   0.66108   0.00101   0.00000  Uiso   1.00
N3     N     0.50000   0.83196   0.10082   0.00000  Uiso   1.00
N4     N     0.50000   0.16108   0.50101   0.00000  Uiso   1.00
N5     N     0.50000   0.66804   0.60082   0.00000  Uiso   1.00
N6     N     0.50000   0.33892   0.00101   0.00000  Uiso   1.00
N7     N     0.50000   0.16804   0.10082   0.00000  Uiso   1.00
N8     N     0.50000   0.83892   0.50101   0.00000  Uiso   1.00
N9     N     0.50000   0.05756   0.29657   0.00000  Uiso   1.00
N10    N     0.50000   0.55756   0.79657   0.00000  Uiso   1.00
N11    N     0.50000   0.94244   0.29657   0.00000  Uiso   1.00
N12    N     0.50000   0.44244   0.79657   0.00000  Uiso   1.00
H1     H     0.50000   0.03353   0.29655   0.00000  Uiso   1.00
H2     H     0.50000   0.53353   0.79655   0.00000  Uiso   1.00
H3     H     0.50000   0.96647   0.29655   0.00000  Uiso   1.00
H4     H     0.50000   0.46647   0.79655   0.00000  Uiso   1.00
C33    C     0.50000   0.07587   0.26233   0.00000  Uiso   1.00
C34    C     0.50000   0.92412   0.33081   0.00000  Uiso   1.00
C35    C     0.50000   0.57587   0.76234   0.00000  Uiso   1.00
C36    C     0.50000   0.42412   0.83081   0.00000  Uiso   1.00
C37    C     0.50000   0.92413   0.26233   0.00000  Uiso   1.00
C38    C     0.50000   0.07588   0.33081   0.00000  Uiso   1.00
C39    C     0.50000   0.42413   0.76234   0.00000  Uiso   1.00
C40    C     0.50000   0.57588   0.83081   0.00000  Uiso   1.00
C41    C     0.50000   0.10909   0.27515   0.00000  Uiso   1.00
C42    C     0.50000   0.89091   0.31802   0.00000  Uiso   1.00
C43    C     0.50000   0.60909   0.77515   0.00000  Uiso   1.00
C44    C     0.50000   0.39091   0.81802   0.00000  Uiso   1.00
C45    C     0.50000   0.89091   0.27515   0.00000  Uiso   1.00
C46    C     0.50000   0.10909   0.31802   0.00000  Uiso   1.00
C47    C     0.50000   0.39091   0.77515   0.00000  Uiso   1.00
C48    C     0.50000   0.60909   0.81802   0.00000  Uiso   1.00
H5     H     0.50000   0.13100   0.25573   0.00000  Uiso   1.00
H6     H     0.50000   0.86901   0.33746   0.00000  Uiso   1.00
H7     H     0.50000   0.63100   0.75573   0.00000  Uiso   1.00
H8     H     0.50000   0.36901   0.83746   0.00000  Uiso   1.00
H9     H     0.50000   0.86900   0.25573   0.00000  Uiso   1.00
H10    H     0.50000   0.13099   0.33746   0.00000  Uiso   1.00
H11    H     0.50000   0.36900   0.75573   0.00000  Uiso   1.00
H12    H     0.50000   0.63099   0.83746   0.00000  Uiso   1.00
N13    N     0.50000   0.50000   0.72853   0.00000  Uiso   1.00
N14    N     0.50000   0.50000   0.86454   0.00000  Uiso   1.00
N15    N     0.50000   0.00000   0.22853   0.00000  Uiso   1.00
N16    N     0.50000   0.00000   0.36454   0.00000  Uiso   1.00
C49    C     0.50000   0.52950   0.70457   0.00000  Uiso   1.00
C50    C     0.50000   0.47051   0.88850   0.00000  Uiso   1.00
C51    C     0.50000   0.02950   0.20457   0.00000  Uiso   1.00
C52    C     0.50000   0.97051   0.38850   0.00000  Uiso   1.00
C53    C     0.50000   0.47050   0.70457   0.00000  Uiso   1.00
C54    C     0.50000   0.52949   0.88850   0.00000  Uiso   1.00
C55    C     0.50000   0.97050   0.20457   0.00000  Uiso   1.00
C56    C     0.50000   0.02949   0.38850   0.00000  Uiso   1.00
C57    C     0.50000   0.51692   0.66224   0.00000  Uiso   1.00
C58    C     0.50000   0.48309   0.93084   0.00000  Uiso   1.00
C59    C     0.50000   0.01692   0.16224   0.00000  Uiso   1.00
C60    C     0.50000   0.98309   0.43084   0.00000  Uiso   1.00
C61    C     0.50000   0.48308   0.66224   0.00000  Uiso   1.00
C62    C     0.50000   0.51691   0.93084   0.00000  Uiso   1.00
C63    C     0.50000   0.98308   0.16224   0.00000  Uiso   1.00
C64    C     0.50000   0.01691   0.43084   0.00000  Uiso   1.00
H13    H     0.50000   0.53228   0.63505   0.00000  Uiso   1.00
H14    H     0.50000   0.46774   0.95805   0.00000  Uiso   1.00
H15    H     0.50000   0.03228   0.13505   0.00000  Uiso   1.00
H16    H     0.50000   0.96774   0.45805   0.00000  Uiso   1.00
H17    H     0.50000   0.46772   0.63505   0.00000  Uiso   1.00
H18    H     0.50000   0.53226   0.95805   0.00000  Uiso   1.00
H19    H     0.50000   0.96772   0.13505   0.00000  Uiso   1.00
H20    H     0.50000   0.03226   0.45805   0.00000  Uiso   1.00
C65    C     0.50000   0.06254   0.21810   0.00000  Uiso   1.00
C66    C     0.50000   0.93746   0.37502   0.00000  Uiso   1.00
C67    C     0.50000   0.56254   0.71810   0.00000  Uiso   1.00
C68    C     0.50000   0.43746   0.87502   0.00000  Uiso   1.00
C69    C     0.50000   0.93746   0.21810   0.00000  Uiso   1.00
C70    C     0.50000   0.06254   0.37502   0.00000  Uiso   1.00
C71    C     0.50000   0.43746   0.71810   0.00000  Uiso   1.00
C72    C     0.50000   0.56254   0.87502   0.00000  Uiso   1.00
C73    C     0.50000   0.08875   0.18645   0.00000  Uiso   1.00
C74    C     0.50000   0.91141   0.40688   0.00000  Uiso   1.00
C75    C     0.50000   0.58875   0.68645   0.00000  Uiso   1.00
C76    C     0.50000   0.41141   0.90688   0.00000  Uiso   1.00
C77    C     0.50000   0.91125   0.18645   0.00000  Uiso   1.00
C78    C     0.50000   0.08859   0.40688   0.00000  Uiso   1.00
C79    C     0.50000   0.41125   0.68645   0.00000  Uiso   1.00
C80    C     0.50000   0.58859   0.90688   0.00000  Uiso   1.00
C81    C     0.67979   0.60169   0.67188   0.00000  Uiso   1.00
C82    C     0.67980   0.39916   0.92231   0.00000  Uiso   1.00
C83    C     0.67979   0.10169   0.17188   0.00000  Uiso   1.00
C84    C     0.67980   0.89916   0.42231   0.00000  Uiso   1.00
C85    C     0.32021   0.39831   0.67188   0.00000  Uiso   1.00
C86    C     0.32020   0.60084   0.92231   0.00000  Uiso   1.00
C87    C     0.32021   0.89831   0.17188   0.00000  Uiso   1.00
C88    C     0.32020   0.10084   0.42231   0.00000  Uiso   1.00
C89    C     0.67979   0.39831   0.67188   0.00000  Uiso   1.00
C90    C     0.67980   0.60084   0.92231   0.00000  Uiso   1.00
C91    C     0.67979   0.89831   0.17188   0.00000  Uiso   1.00
C92    C     0.67980   0.10084   0.42231   0.00000  Uiso   1.00
C93    C     0.32021   0.60169   0.67188   0.00000  Uiso   1.00
C94    C     0.32020   0.39916   0.92231   0.00000  Uiso   1.00
C95    C     0.32021   0.10169   0.17188   0.00000  Uiso   1.00
C96    C     0.32020   0.89916   0.42231   0.00000  Uiso   1.00
H21    H     0.81907   0.09189   0.18315   0.00000  Uiso   1.00
H22    H     0.81911   0.90862   0.41065   0.00000  Uiso   1.00
H23    H     0.81907   0.59189   0.68315   0.00000  Uiso   1.00
H24    H     0.81911   0.40862   0.91065   0.00000  Uiso   1.00
H25    H     0.18092   0.90811   0.18315   0.00000  Uiso   1.00
H26    H     0.18089   0.09138   0.41065   0.00000  Uiso   1.00
H27    H     0.18092   0.40811   0.68315   0.00000  Uiso   1.00
H28    H     0.18089   0.59138   0.91065   0.00000  Uiso   1.00
H29    H     0.81907   0.90811   0.18315   0.00000  Uiso   1.00
H30    H     0.81911   0.09138   0.41065   0.00000  Uiso   1.00
H31    H     0.81907   0.40811   0.68315   0.00000  Uiso   1.00
H32    H     0.81911   0.59138   0.91065   0.00000  Uiso   1.00
H33    H     0.18092   0.09189   0.18315   0.00000  Uiso   1.00
H34    H     0.18089   0.90862   0.41065   0.00000  Uiso   1.00
H35    H     0.18092   0.59189   0.68315   0.00000  Uiso   1.00
H36    H     0.18089   0.40862   0.91065   0.00000  Uiso   1.00
C97    C     0.67946   0.12760   0.14312   0.00000  Uiso   1.00
C98    C     0.67942   0.87496   0.45322   0.00000  Uiso   1.00
C99    C     0.67946   0.62760   0.64312   0.00000  Uiso   1.00
C100   C     0.67942   0.37496   0.95322   0.00000  Uiso   1.00
C101   C     0.32053   0.87240   0.14312   0.00000  Uiso   1.00
C102   C     0.32058   0.12504   0.45322   0.00000  Uiso   1.00
C103   C     0.32053   0.37240   0.64312   0.00000  Uiso   1.00
C104   C     0.32058   0.62504   0.95322   0.00000  Uiso   1.00
C105   C     0.67946   0.87240   0.14312   0.00000  Uiso   1.00
C106   C     0.67942   0.12504   0.45322   0.00000  Uiso   1.00
C107   C     0.67946   0.37240   0.64312   0.00000  Uiso   1.00
C108   C     0.67942   0.62504   0.95322   0.00000  Uiso   1.00
C109   C     0.32053   0.12760   0.14312   0.00000  Uiso   1.00
C110   C     0.32058   0.87496   0.45322   0.00000  Uiso   1.00
C111   C     0.32053   0.62760   0.64312   0.00000  Uiso   1.00
C112   C     0.32058   0.37496   0.95322   0.00000  Uiso   1.00
H37    H     0.81769   0.13786   0.13206   0.00000  Uiso   1.00
H38    H     0.81744   0.86572   0.46562   0.00000  Uiso   1.00
H39    H     0.81769   0.63786   0.63206   0.00000  Uiso   1.00
H40    H     0.81744   0.36572   0.96562   0.00000  Uiso   1.00
H41    H     0.18231   0.86214   0.13206   0.00000  Uiso   1.00
H42    H     0.18256   0.13428   0.46562   0.00000  Uiso   1.00
H43    H     0.18231   0.36214   0.63206   0.00000  Uiso   1.00
H44    H     0.18256   0.63428   0.96562   0.00000  Uiso   1.00
H45    H     0.81769   0.86214   0.13206   0.00000  Uiso   1.00
H46    H     0.81744   0.13428   0.46562   0.00000  Uiso   1.00
H47    H     0.81769   0.36214   0.63206   0.00000  Uiso   1.00
H48    H     0.81744   0.63428   0.96562   0.00000  Uiso   1.00
H49    H     0.18231   0.13786   0.13206   0.00000  Uiso   1.00
H50    H     0.18256   0.86572   0.46562   0.00000  Uiso   1.00
H51    H     0.18231   0.63786   0.63206   0.00000  Uiso   1.00
H52    H     0.18256   0.36572   0.96562   0.00000  Uiso   1.00
C113   C     0.50000   0.14074   0.12895   0.00000  Uiso   1.00
C114   C     0.50000   0.86280   0.46860   0.00000  Uiso   1.00
C115   C     0.50000   0.64074   0.62895   0.00000  Uiso   1.00
C116   C     0.50000   0.36280   0.96860   0.00000  Uiso   1.00
C117   C     0.50000   0.85926   0.12895   0.00000  Uiso   1.00
C118   C     0.50000   0.13720   0.46860   0.00000  Uiso   1.00
C119   C     0.50000   0.35926   0.62895   0.00000  Uiso   1.00
C120   C     0.50000   0.63720   0.96860   0.00000  Uiso   1.00
O1     O     0.50000   0.23489   0.64136   0.00000  Uiso   1.00
H53    H     0.50000   0.30419   0.53044   0.00000  Uiso   1.00
H54    H     0.50000   0.20197   0.46324   0.00000  Uiso   1.00
H55    H     0.50000   0.75798   0.98224   0.00000  Uiso   1.00
O2     O     0.50000   0.67973   0.08836   0.00000  Uiso   1.00
H56    H     0.50000   0.79567   0.14584   0.00000  Uiso   1.00
H57    H     0.50000   0.21025   0.64934   0.00000  Uiso   1.00
H58    H     0.50000   0.66011   0.06914   0.00000  Uiso   1.00
O3     O     0.50000   0.73489   0.14136   0.00000  Uiso   1.00
H59    H     0.50000   0.80419   0.03044   0.00000  Uiso   1.00
H60    H     0.50000   0.70197   0.96324   0.00000  Uiso   1.00
H61    H     0.50000   0.25798   0.48224   0.00000  Uiso   1.00
O4     O     0.50000   0.17973   0.58836   0.00000  Uiso   1.00
H62    H     0.50000   0.29567   0.64584   0.00000  Uiso   1.00
H63    H     0.50000   0.71025   0.14934   0.00000  Uiso   1.00
H64    H     0.50000   0.16011   0.56914   0.00000  Uiso   1.00
O5     O     0.50000   0.76511   0.64136   0.00000  Uiso   1.00
H65    H     0.50000   0.69581   0.53044   0.00000  Uiso   1.00
H66    H     0.50000   0.79803   0.46324   0.00000  Uiso   1.00
H67    H     0.50000   0.24202   0.98224   0.00000  Uiso   1.00
O6     O     0.50000   0.32027   0.08836   0.00000  Uiso   1.00
H68    H     0.50000   0.20433   0.14584   0.00000  Uiso   1.00
H69    H     0.50000   0.78975   0.64934   0.00000  Uiso   1.00
H70    H     0.50000   0.33989   0.06914   0.00000  Uiso   1.00
O7     O     0.50000   0.26511   0.14136   0.00000  Uiso   1.00
H71    H     0.50000   0.19581   0.03044   0.00000  Uiso   1.00
H72    H     0.50000   0.29803   0.96324   0.00000  Uiso   1.00
H73    H     0.50000   0.74202   0.48224   0.00000  Uiso   1.00
O8     O     0.50000   0.82027   0.58836   0.00000  Uiso   1.00
H74    H     0.50000   0.70433   0.64584   0.00000  Uiso   1.00
H75    H     0.50000   0.28975   0.14934   0.00000  Uiso   1.00
H76    H     0.50000   0.83989   0.56914   0.00000  Uiso   1.00
loop_
_geom_bond_atom_site_label_1
_geom_bond_atom_site_label_2
_geom_bond_distance
_geom_bond_site_symmetry_2
_ccdc_geom_bond_type
C1     O1      1.410   .     S
C1     C25     1.405   .     S
C1     C12     1.428   .     S
C2     C26     1.408   .     S
C2     C11     1.391   .     S
C3     C10     1.428   .     S
C3     C27     1.405   .     S
C3     O3      1.410   .     S
C4     C28     1.408   .     S
C4     H61     1.085   .     S
C4     C9      1.391   .     S
C5     O5      1.410   .     S
C5     C16     1.428   .     S
C5     C29     1.405   .     S
C6     C30     1.408   .     S
C6     C15     1.391   .     S
C7     C31     1.405   .     S
C7     C14     1.428   .     S
C7     O7      1.410   .     S
C8     C32     1.408   .     S
C8     H73     1.085   .     S
C8     C13     1.391   .     S
C9     C25     1.399   .     S
C9     H53     1.085   .     S
C10    O2      1.411   .     S
C10    C26     1.437   .     S
C11    H59     1.085   .     S
C11    C27     1.399   .     S
C12    O4      1.411   .     S
C12    C28     1.437   .     S
C13    C29     1.399   .     S
C13    H65     1.085   .     S
C14    O6      1.411   .     S
C14    C30     1.437   .     S
C15    H71     1.085   .     S
C15    C31     1.399   .     S
C16    O8      1.411   .     S
C16    C32     1.437   .     S
C17    C28     1.494   .     S
C17    N4      1.294   .     S
C17    H54     1.087   .     S
C18    H56     1.087   .     S
C18    N3      1.299   .     S
C18    C27     1.481   .     S
C19    H60     1.087   .     S
C20    H62     1.087   .     S
C20    N1      1.299   .     S
C20    C25     1.481   .     S
C21    N8      1.294   .     S
C21    C32     1.494   .     S
C21    H66     1.087   .     S
C22    H68     1.087   .     S
C22    C31     1.481   .     S
C22    N7      1.299   .     S
C23    H72     1.087   .     S
C24    N5      1.299   .     S
C24    H74     1.087   .     S
C24    C29     1.481   .     S
N1     C119    1.428   .     S
N3     C117    1.428   .     S
N4     C118    1.427   .     S
N5     C115    1.428   .     S
N7     C113    1.428   .     S
N8     C114    1.427   .     S
N9     H1      0.959   .     S
N9     C33     1.339   .     S
N9     C38     1.340   .     S
N10    H2      0.959   .     S
N10    C35     1.339   .     S
N10    C40     1.340   .     S
N11    H3      0.959   .     S
N11    C37     1.339   .     S
N11    C34     1.340   .     S
N12    C39     1.339   .     S
N12    H4      0.959   .     S
N12    C36     1.340   .     S
C33    C65     1.545   .     S
C33    C41     1.391   .     S
C34    C66     1.544   .     S
C34    C42     1.390   .     S
C35    C43     1.391   .     S
C35    C67     1.545   .     S
C36    C44     1.390   .     S
C36    C68     1.544   .     S
C37    C69     1.545   .     S
C37    C45     1.391   .     S
C38    C70     1.544   .     S
C38    C46     1.390   .     S
C39    C47     1.391   .     S
C39    C71     1.545   .     S
C40    C48     1.390   .     S
C40    C72     1.544   .     S
C41    C46     1.405   .     S
C41    H5      1.081   .     S
C42    C45     1.405   .     S
C42    H6      1.081   .     S
C43    H7      1.081   .     S
C43    C48     1.405   .     S
C44    H8      1.081   .     S
C44    C47     1.405   .     S
C45    H9      1.081   .     S
C46    H10     1.081   .     S
C47    H11     1.081   .     S
C48    H12     1.081   .     S
N13    C49     1.415   .     S
N13    C53     1.415   .     S
N14    C54     1.415   .     S
N14    C50     1.415   .     S
N15    C51     1.415   .     S
N16    C56     1.415   .     S
C49    C67     1.391   .     S
C49    C57     1.476   .     S
C50    C68     1.391   .     S
C50    C58     1.476   .     S
C51    C59     1.476   .     S
C51    C65     1.391   .     S
C52    C60     1.476   .     S
C52    C66     1.391   .     S
C53    C71     1.391   .     S
C53    C61     1.476   .     S
C54    C72     1.391   .     S
C54    C62     1.476   .     S
C55    C63     1.476   .     S
C55    C69     1.391   .     S
C56    C64     1.476   .     S
C56    C70     1.391   .     S
C57    C61     1.351   .     S
C57    H13     1.082   .     S
C58    H14     1.082   .     S
C58    C62     1.350   .     S
C59    H15     1.082   .     S
C60    H16     1.082   .     S
C61    H17     1.082   .     S
C62    H18     1.082   .     S
C63    H19     1.082   .     S
C64    H20     1.082   .     S
C65    C73     1.473   .     S
C66    C74     1.473   .     S
C67    C75     1.473   .     S
C68    C76     1.473   .     S
C69    C77     1.473   .     S
C70    C78     1.473   .     S
C71    C79     1.473   .     S
C72    C80     1.473   .     S
C73    C95     1.402   .     S
C73    C83     1.402   .     S
C74    C96     1.402   .     S
C74    C84     1.402   .     S
C75    C93     1.402   .     S
C75    C81     1.402   .     S
C76    C94     1.402   .     S
C76    C82     1.402   .     S
C77    C87     1.402   .     S
C77    C91     1.402   .     S
C78    C88     1.402   .     S
C78    C92     1.402   .     S
C79    C85     1.402   .     S
C79    C89     1.402   .     S
C80    C86     1.402   .     S
C80    C90     1.402   .     S
C81    H23     1.083   .     S
C81    C99     1.399   .     S
C82    C100    1.400   .     S
C82    H24     1.082   .     S
C83    H21     1.083   .     S
C83    C97     1.399   .     S
C84    H22     1.082   .     S
C84    C98     1.400   .     S
C85    H27     1.083   .     S
C85    C103    1.399   .     S
C86    C104    1.400   .     S
C86    H28     1.082   .     S
C87    H25     1.083   .     S
C87    C101    1.399   .     S
C88    H26     1.082   .     S
C88    C102    1.400   .     S
C89    H31     1.083   .     S
C89    C107    1.399   .     S
C90    C108    1.400   .     S
C90    H32     1.082   .     S
C91    H29     1.083   .     S
C91    C105    1.399   .     S
C92    H30     1.082   .     S
C92    C106    1.400   .     S
C93    H35     1.083   .     S
C93    C111    1.399   .     S
C94    C112    1.400   .     S
C94    H36     1.082   .     S
C95    H33     1.083   .     S
C95    C109    1.399   .     S
C96    H34     1.082   .     S
C96    C110    1.400   .     S
C97    C113    1.398   .     S
C97    H37     1.081   .     S
C98    C114    1.398   .     S
C98    H38     1.081   .     S
C99    C115    1.398   .     S
C99    H39     1.081   .     S
C100   C116    1.398   .     S
C100   H40     1.081   .     S
C101   C117    1.398   .     S
C101   H41     1.081   .     S
C102   C118    1.398   .     S
C102   H42     1.081   .     S
C103   C119    1.398   .     S
C103   H43     1.081   .     S
C104   C120    1.398   .     S
C104   H44     1.081   .     S
C105   C117    1.398   .     S
C105   H45     1.081   .     S
C106   C118    1.398   .     S
C106   H46     1.081   .     S
C107   C119    1.398   .     S
C107   H47     1.081   .     S
C108   C120    1.398   .     S
C108   H48     1.081   .     S
C109   C113    1.398   .     S
C109   H49     1.081   .     S
C110   C114    1.398   .     S
C110   H50     1.081   .     S
C111   C115    1.398   .     S
C111   H51     1.081   .     S
C112   C116    1.398   .     S
C112   H52     1.081   .     S
O1     H57     1.018   .     S
O2     H58     1.005   .     S
O3     H63     1.018   .     S
O4     H64     1.005   .     S
O5     H69     1.018   .     S
O6     H70     1.005   .     S
O7     H75     1.018   .     S
O8     H76     1.005   .     S
