data_DmaTph-23
_audit_creation_date              2016-12-13
_audit_creation_method            'Materials Studio'
_symmetry_space_group_name_H-M    'P1'
_symmetry_Int_Tables_number       1
_symmetry_cell_setting            triclinic
loop_
_symmetry_equiv_pos_as_xyz
  x,y,z
_cell_length_a                    6.7263
_cell_length_b                    40.0276
_cell_length_c                    32.5903
_cell_angle_alpha                 90.0000
_cell_angle_beta                  90.0000
_cell_angle_gamma                 90.0000
loop_
_atom_site_label
_atom_site_type_symbol
_atom_site_fract_x
_atom_site_fract_y
_atom_site_fract_z
_atom_site_U_iso_or_equiv
_atom_site_adp_type
_atom_site_occupancy
C1     C     0.50000   0.74670   0.01746   0.00000  Uiso   1.00
C2     C     0.50000   0.23755   0.60280   0.00000  Uiso   1.00
C3     C     0.50000   0.24670   0.51746   0.00000  Uiso   1.00
C4     C     0.50000   0.73755   0.10280   0.00000  Uiso   1.00
C5     C     0.50000   0.25330   0.01746   0.00000  Uiso   1.00
C6     C     0.50000   0.76245   0.60280   0.00000  Uiso   1.00
C7     C     0.50000   0.75330   0.51746   0.00000  Uiso   1.00
C8     C     0.50000   0.26245   0.10280   0.00000  Uiso   1.00
C9     C     0.50000   0.70827   0.07651   0.00000  Uiso   1.00
C10    C     0.50000   0.27402   0.54331   0.00000  Uiso   1.00
C11    C     0.50000   0.20827   0.57651   0.00000  Uiso   1.00
C12    C     0.50000   0.77402   0.04331   0.00000  Uiso   1.00
C13    C     0.50000   0.29173   0.07651   0.00000  Uiso   1.00
C14    C     0.50000   0.72598   0.54331   0.00000  Uiso   1.00
C15    C     0.50000   0.79173   0.57651   0.00000  Uiso   1.00
C16    C     0.50000   0.22598   0.04331   0.00000  Uiso   1.00
C17    C     0.50000   0.79965   0.11279   0.00000  Uiso   1.00
C18    C     0.50000   0.18901   0.49706   0.00000  Uiso   1.00
C19    C     0.50000   0.29965   0.61279   0.00000  Uiso   1.00
C20    C     0.50000   0.68901   0.99706   0.00000  Uiso   1.00
C21    C     0.50000   0.20035   0.11279   0.00000  Uiso   1.00
C22    C     0.50000   0.81099   0.49706   0.00000  Uiso   1.00
C23    C     0.50000   0.70035   0.61279   0.00000  Uiso   1.00
C24    C     0.50000   0.31099   0.99706   0.00000  Uiso   1.00
C25    C     0.50000   0.71353   0.03215   0.00000  Uiso   1.00
C26    C     0.50000   0.26985   0.58562   0.00000  Uiso   1.00
C27    C     0.50000   0.21353   0.53215   0.00000  Uiso   1.00
C28    C     0.50000   0.76985   0.08562   0.00000  Uiso   1.00
C29    C     0.50000   0.28647   0.03215   0.00000  Uiso   1.00
C30    C     0.50000   0.73015   0.58562   0.00000  Uiso   1.00
C31    C     0.50000   0.78647   0.53215   0.00000  Uiso   1.00
C32    C     0.50000   0.23015   0.08562   0.00000  Uiso   1.00
N1     N     0.50000   0.65693   0.00050   0.00000  Uiso   1.00
N2     N     0.50000   0.32978   0.59791   0.00000  Uiso   1.00
N3     N     0.50000   0.15693   0.50050   0.00000  Uiso   1.00
N4     N     0.50000   0.82978   0.09791   0.00000  Uiso   1.00
N5     N     0.50000   0.34307   0.00050   0.00000  Uiso   1.00
N6     N     0.50000   0.67022   0.59791   0.00000  Uiso   1.00
N7     N     0.50000   0.84307   0.50050   0.00000  Uiso   1.00
N8     N     0.50000   0.17022   0.09791   0.00000  Uiso   1.00
N9     N     0.50000   0.05740   0.29092   0.00000  Uiso   1.00
N10    N     0.50000   0.55740   0.79092   0.00000  Uiso   1.00
N11    N     0.50000   0.94260   0.29092   0.00000  Uiso   1.00
N12    N     0.50000   0.44260   0.79092   0.00000  Uiso   1.00
H1     H     0.50000   0.03344   0.29088   0.00000  Uiso   1.00
H2     H     0.50000   0.53344   0.79088   0.00000  Uiso   1.00
H3     H     0.50000   0.96656   0.29088   0.00000  Uiso   1.00
H4     H     0.50000   0.46656   0.79088   0.00000  Uiso   1.00
C33    C     0.50000   0.92433   0.32536   0.00000  Uiso   1.00
C34    C     0.50000   0.07565   0.25649   0.00000  Uiso   1.00
C35    C     0.50000   0.42434   0.82536   0.00000  Uiso   1.00
C36    C     0.50000   0.57565   0.75649   0.00000  Uiso   1.00
C37    C     0.50000   0.07566   0.32536   0.00000  Uiso   1.00
C38    C     0.50000   0.92435   0.25649   0.00000  Uiso   1.00
C39    C     0.50000   0.57566   0.82536   0.00000  Uiso   1.00
C40    C     0.50000   0.42435   0.75649   0.00000  Uiso   1.00
C41    C     0.50000   0.89123   0.31251   0.00000  Uiso   1.00
C42    C     0.50000   0.10877   0.26939   0.00000  Uiso   1.00
C43    C     0.50000   0.39123   0.81251   0.00000  Uiso   1.00
C44    C     0.50000   0.60877   0.76939   0.00000  Uiso   1.00
C45    C     0.50000   0.10877   0.31251   0.00000  Uiso   1.00
C46    C     0.50000   0.89123   0.26939   0.00000  Uiso   1.00
C47    C     0.50000   0.60877   0.81251   0.00000  Uiso   1.00
C48    C     0.50000   0.39123   0.76939   0.00000  Uiso   1.00
H5     H     0.50000   0.86941   0.33208   0.00000  Uiso   1.00
H6     H     0.50000   0.13061   0.24986   0.00000  Uiso   1.00
H7     H     0.50000   0.36941   0.83208   0.00000  Uiso   1.00
H8     H     0.50000   0.63061   0.74986   0.00000  Uiso   1.00
H9     H     0.50000   0.13059   0.33208   0.00000  Uiso   1.00
H10    H     0.50000   0.86939   0.24986   0.00000  Uiso   1.00
H11    H     0.50000   0.63059   0.83208   0.00000  Uiso   1.00
H12    H     0.50000   0.36939   0.74986   0.00000  Uiso   1.00
N13    N     0.50000   0.50000   0.72246   0.00000  Uiso   1.00
N14    N     0.50000   0.50000   0.85923   0.00000  Uiso   1.00
N15    N     0.50000   0.00000   0.22246   0.00000  Uiso   1.00
N16    N     0.50000   0.00000   0.35923   0.00000  Uiso   1.00
C49    C     0.50000   0.52941   0.69836   0.00000  Uiso   1.00
C50    C     0.50000   0.47061   0.88334   0.00000  Uiso   1.00
C51    C     0.50000   0.02941   0.19836   0.00000  Uiso   1.00
C52    C     0.50000   0.97061   0.38334   0.00000  Uiso   1.00
C53    C     0.50000   0.47059   0.69836   0.00000  Uiso   1.00
C54    C     0.50000   0.52939   0.88334   0.00000  Uiso   1.00
C55    C     0.50000   0.97059   0.19836   0.00000  Uiso   1.00
C56    C     0.50000   0.02939   0.38334   0.00000  Uiso   1.00
C57    C     0.50000   0.51687   0.65579   0.00000  Uiso   1.00
C58    C     0.50000   0.48314   0.92592   0.00000  Uiso   1.00
C59    C     0.50000   0.01687   0.15578   0.00000  Uiso   1.00
C60    C     0.50000   0.98314   0.42592   0.00000  Uiso   1.00
C61    C     0.50000   0.48313   0.65579   0.00000  Uiso   1.00
C62    C     0.50000   0.51686   0.92592   0.00000  Uiso   1.00
C63    C     0.50000   0.98313   0.15578   0.00000  Uiso   1.00
C64    C     0.50000   0.01686   0.42592   0.00000  Uiso   1.00
H13    H     0.50000   0.53219   0.62844   0.00000  Uiso   1.00
H14    H     0.50000   0.46785   0.95329   0.00000  Uiso   1.00
H15    H     0.50000   0.03219   0.12844   0.00000  Uiso   1.00
H16    H     0.50000   0.96785   0.45329   0.00000  Uiso   1.00
H17    H     0.50000   0.46781   0.62844   0.00000  Uiso   1.00
H18    H     0.50000   0.53215   0.95329   0.00000  Uiso   1.00
H19    H     0.50000   0.96781   0.12844   0.00000  Uiso   1.00
H20    H     0.50000   0.03215   0.45329   0.00000  Uiso   1.00
C65    C     0.50000   0.93764   0.36981   0.00000  Uiso   1.00
C66    C     0.50000   0.06235   0.21198   0.00000  Uiso   1.00
C67    C     0.50000   0.43764   0.86981   0.00000  Uiso   1.00
C68    C     0.50000   0.56235   0.71198   0.00000  Uiso   1.00
C69    C     0.50000   0.06236   0.36981   0.00000  Uiso   1.00
C70    C     0.50000   0.93765   0.21198   0.00000  Uiso   1.00
C71    C     0.50000   0.56236   0.86981   0.00000  Uiso   1.00
C72    C     0.50000   0.43765   0.71198   0.00000  Uiso   1.00
C73    C     0.50000   0.91176   0.40197   0.00000  Uiso   1.00
C74    C     0.50000   0.08855   0.18023   0.00000  Uiso   1.00
C75    C     0.50000   0.41176   0.90197   0.00000  Uiso   1.00
C76    C     0.50000   0.58855   0.68023   0.00000  Uiso   1.00
C77    C     0.50000   0.08824   0.40197   0.00000  Uiso   1.00
C78    C     0.50000   0.91144   0.18023   0.00000  Uiso   1.00
C79    C     0.50000   0.58824   0.90197   0.00000  Uiso   1.00
C80    C     0.50000   0.41145   0.68023   0.00000  Uiso   1.00
C81    C     0.68026   0.60173   0.66595   0.00000  Uiso   1.00
C82    C     0.68027   0.39987   0.91787   0.00000  Uiso   1.00
C83    C     0.68026   0.10173   0.16595   0.00000  Uiso   1.00
C84    C     0.68027   0.89987   0.41787   0.00000  Uiso   1.00
C85    C     0.31974   0.39827   0.66595   0.00000  Uiso   1.00
C86    C     0.31973   0.60012   0.91787   0.00000  Uiso   1.00
C87    C     0.31974   0.89827   0.16595   0.00000  Uiso   1.00
C88    C     0.31973   0.10013   0.41787   0.00000  Uiso   1.00
C89    C     0.68026   0.39827   0.66595   0.00000  Uiso   1.00
C90    C     0.68027   0.60012   0.91787   0.00000  Uiso   1.00
C91    C     0.68026   0.89827   0.16595   0.00000  Uiso   1.00
C92    C     0.68027   0.10013   0.41787   0.00000  Uiso   1.00
C93    C     0.31974   0.60173   0.66595   0.00000  Uiso   1.00
C94    C     0.31973   0.39987   0.91787   0.00000  Uiso   1.00
C95    C     0.31974   0.10173   0.16595   0.00000  Uiso   1.00
C96    C     0.31973   0.89987   0.41787   0.00000  Uiso   1.00
H21    H     0.81992   0.90908   0.40586   0.00000  Uiso   1.00
H22    H     0.81989   0.09181   0.17709   0.00000  Uiso   1.00
H23    H     0.81992   0.40908   0.90586   0.00000  Uiso   1.00
H24    H     0.81989   0.59181   0.67709   0.00000  Uiso   1.00
H25    H     0.18008   0.09092   0.40586   0.00000  Uiso   1.00
H26    H     0.18011   0.90819   0.17709   0.00000  Uiso   1.00
H27    H     0.18008   0.59092   0.90586   0.00000  Uiso   1.00
H28    H     0.18011   0.40819   0.67709   0.00000  Uiso   1.00
H29    H     0.81992   0.09092   0.40586   0.00000  Uiso   1.00
H30    H     0.81989   0.90819   0.17709   0.00000  Uiso   1.00
H31    H     0.81992   0.59092   0.90586   0.00000  Uiso   1.00
H32    H     0.81989   0.40819   0.67709   0.00000  Uiso   1.00
H33    H     0.18008   0.90908   0.40586   0.00000  Uiso   1.00
H34    H     0.18011   0.09181   0.17709   0.00000  Uiso   1.00
H35    H     0.18008   0.40908   0.90586   0.00000  Uiso   1.00
H36    H     0.18011   0.59181   0.67709   0.00000  Uiso   1.00
C97    C     0.67989   0.87661   0.44992   0.00000  Uiso   1.00
C98    C     0.67994   0.12824   0.13796   0.00000  Uiso   1.00
C99    C     0.67989   0.37661   0.94992   0.00000  Uiso   1.00
C100   C     0.67994   0.62824   0.63796   0.00000  Uiso   1.00
C101   C     0.32011   0.12339   0.44992   0.00000  Uiso   1.00
C102   C     0.32006   0.87175   0.13796   0.00000  Uiso   1.00
C103   C     0.32011   0.62339   0.94992   0.00000  Uiso   1.00
C104   C     0.32006   0.37175   0.63796   0.00000  Uiso   1.00
C105   C     0.67989   0.12339   0.44992   0.00000  Uiso   1.00
C106   C     0.67994   0.87175   0.13796   0.00000  Uiso   1.00
C107   C     0.67989   0.62339   0.94992   0.00000  Uiso   1.00
C108   C     0.67994   0.37175   0.63796   0.00000  Uiso   1.00
C109   C     0.32011   0.87661   0.44992   0.00000  Uiso   1.00
C110   C     0.32006   0.12824   0.13796   0.00000  Uiso   1.00
C111   C     0.32011   0.37661   0.94992   0.00000  Uiso   1.00
C112   C     0.32006   0.62824   0.63796   0.00000  Uiso   1.00
H37    H     0.81835   0.86781   0.46281   0.00000  Uiso   1.00
H38    H     0.81849   0.13886   0.12738   0.00000  Uiso   1.00
H39    H     0.81835   0.36781   0.96281   0.00000  Uiso   1.00
H40    H     0.81849   0.63886   0.62738   0.00000  Uiso   1.00
H41    H     0.18164   0.13219   0.46281   0.00000  Uiso   1.00
H42    H     0.18151   0.86114   0.12738   0.00000  Uiso   1.00
H43    H     0.18164   0.63219   0.96281   0.00000  Uiso   1.00
H44    H     0.18151   0.36114   0.62738   0.00000  Uiso   1.00
H45    H     0.81835   0.13219   0.46281   0.00000  Uiso   1.00
H46    H     0.81849   0.86114   0.12738   0.00000  Uiso   1.00
H47    H     0.81835   0.63219   0.96281   0.00000  Uiso   1.00
H48    H     0.81849   0.36114   0.62738   0.00000  Uiso   1.00
H49    H     0.18164   0.86781   0.46281   0.00000  Uiso   1.00
H50    H     0.18151   0.13886   0.12738   0.00000  Uiso   1.00
H51    H     0.18164   0.36781   0.96281   0.00000  Uiso   1.00
H52    H     0.18151   0.63886   0.62738   0.00000  Uiso   1.00
C113   C     0.50000   0.86501   0.46598   0.00000  Uiso   1.00
C114   C     0.50000   0.14173   0.12427   0.00000  Uiso   1.00
C115   C     0.50000   0.36501   0.96598   0.00000  Uiso   1.00
C116   C     0.50000   0.64173   0.62427   0.00000  Uiso   1.00
C117   C     0.50000   0.13499   0.46598   0.00000  Uiso   1.00
C118   C     0.50000   0.85827   0.12427   0.00000  Uiso   1.00
C119   C     0.50000   0.63498   0.96598   0.00000  Uiso   1.00
C120   C     0.50000   0.35827   0.62427   0.00000  Uiso   1.00
H53    H     0.63851   0.86018   0.56315   0.00000  Uiso   1.00
H54    H     0.63589   0.80819   0.66295   0.00000  Uiso   1.00
H55    H     0.63851   0.36018   0.06315   0.00000  Uiso   1.00
H56    H     0.63589   0.30819   0.16295   0.00000  Uiso   1.00
H57    H     0.36149   0.13982   0.56315   0.00000  Uiso   1.00
H58    H     0.36410   0.19181   0.66295   0.00000  Uiso   1.00
H59    H     0.36149   0.63982   0.06315   0.00000  Uiso   1.00
H60    H     0.36410   0.69181   0.16295   0.00000  Uiso   1.00
H61    H     0.63851   0.13982   0.56315   0.00000  Uiso   1.00
H62    H     0.63589   0.19181   0.66295   0.00000  Uiso   1.00
H63    H     0.63851   0.63982   0.06315   0.00000  Uiso   1.00
H64    H     0.63589   0.69181   0.16295   0.00000  Uiso   1.00
H65    H     0.36149   0.86018   0.56315   0.00000  Uiso   1.00
H66    H     0.36410   0.80819   0.66295   0.00000  Uiso   1.00
H67    H     0.36149   0.36018   0.06315   0.00000  Uiso   1.00
H68    H     0.36410   0.30819   0.16295   0.00000  Uiso   1.00
H69    H     0.50000   0.75202   0.98480   0.00000  Uiso   1.00
O1     O     0.50000   0.67710   0.09788   0.00000  Uiso   1.00
H70    H     0.50000   0.79614   0.14584   0.00000  Uiso   1.00
O2     O     0.50000   0.23717   0.64672   0.00000  Uiso   1.00
H71    H     0.50000   0.29891   0.53010   0.00000  Uiso   1.00
H72    H     0.50000   0.19907   0.46607   0.00000  Uiso   1.00
C121   C     0.50000   0.85552   0.58086   0.00000  Uiso   1.00
H73    H     0.50000   0.87388   0.60635   0.00000  Uiso   1.00
C122   C     0.50000   0.79329   0.66956   0.00000  Uiso   1.00
H74    H     0.50000   0.78731   0.70279   0.00000  Uiso   1.00
H75    H     0.50000   0.25202   0.48480   0.00000  Uiso   1.00
O3     O     0.50000   0.17710   0.59788   0.00000  Uiso   1.00
H76    H     0.50000   0.29614   0.64584   0.00000  Uiso   1.00
O4     O     0.50000   0.73717   0.14672   0.00000  Uiso   1.00
H77    H     0.50000   0.79891   0.03010   0.00000  Uiso   1.00
H78    H     0.50000   0.69907   0.96607   0.00000  Uiso   1.00
C123   C     0.50000   0.35553   0.08086   0.00000  Uiso   1.00
H79    H     0.50000   0.37388   0.10635   0.00000  Uiso   1.00
C124   C     0.50000   0.29329   0.16956   0.00000  Uiso   1.00
H80    H     0.50000   0.28732   0.20279   0.00000  Uiso   1.00
H81    H     0.50000   0.24798   0.98480   0.00000  Uiso   1.00
O5     O     0.50000   0.32290   0.09788   0.00000  Uiso   1.00
H82    H     0.50000   0.20386   0.14584   0.00000  Uiso   1.00
O6     O     0.50000   0.76283   0.64672   0.00000  Uiso   1.00
H83    H     0.50000   0.70109   0.53010   0.00000  Uiso   1.00
H84    H     0.50000   0.80093   0.46607   0.00000  Uiso   1.00
C125   C     0.50000   0.14447   0.58086   0.00000  Uiso   1.00
H85    H     0.50000   0.12612   0.60635   0.00000  Uiso   1.00
C126   C     0.50000   0.20671   0.66956   0.00000  Uiso   1.00
H86    H     0.50000   0.21268   0.70279   0.00000  Uiso   1.00
H87    H     0.50000   0.74798   0.48480   0.00000  Uiso   1.00
O7     O     0.50000   0.82290   0.59788   0.00000  Uiso   1.00
H88    H     0.50000   0.70386   0.64584   0.00000  Uiso   1.00
O8     O     0.50000   0.26283   0.14672   0.00000  Uiso   1.00
H89    H     0.50000   0.20109   0.03010   0.00000  Uiso   1.00
H90    H     0.50000   0.30093   0.96607   0.00000  Uiso   1.00
C127   C     0.50000   0.64447   0.08086   0.00000  Uiso   1.00
H91    H     0.50000   0.62612   0.10635   0.00000  Uiso   1.00
C128   C     0.50000   0.70671   0.16956   0.00000  Uiso   1.00
H92    H     0.50000   0.71268   0.20279   0.00000  Uiso   1.00
H93    H     0.50000   0.50000   0.75203   0.00000  Uiso   1.00
H94    H     0.50000   0.50000   0.82968   0.00000  Uiso   1.00
H95    H     0.50000   0.00000   0.25203   0.00000  Uiso   1.00
H96    H     0.50000   0.00000   0.32968   0.00000  Uiso   1.00
loop_
_geom_bond_atom_site_label_1
_geom_bond_atom_site_label_2
_geom_bond_distance
_geom_bond_site_symmetry_2
_ccdc_geom_bond_type
C1     C25     1.412   .     S
C1     C12     1.380   .     S
C2     O2      1.431   .     S
C2     C26     1.409   .     S
C2     C11     1.452   .     S
C3     C10     1.380   .     S
C3     C27     1.412   .     S
C3     H75     1.086   .     S
C4     C9      1.452   .     S
C4     C28     1.409   .     S
C4     O4      1.431   .     S
C5     C16     1.380   .     S
C5     C29     1.412   .     S
C6     O6      1.431   .     S
C6     C15     1.452   .     S
C6     C30     1.409   .     S
C7     C31     1.412   .     S
C7     C14     1.380   .     S
C7     H87     1.086   .     S
C8     C32     1.409   .     S
C8     C13     1.452   .     S
C8     O8      1.431   .     S
C9     O1      1.429   .     S
C9     C25     1.461   .     S
C10    H71     1.085   .     S
C10    C26     1.389   .     S
C11    C27     1.461   .     S
C11    O3      1.429   .     S
C12    H77     1.085   .     S
C12    C28     1.389   .     S
C13    O5      1.429   .     S
C13    C29     1.461   .     S
C14    H83     1.085   .     S
C14    C30     1.389   .     S
C15    C31     1.461   .     S
C15    O7      1.429   .     S
C16    H89     1.085   .     S
C16    C32     1.389   .     S
C17    H70     1.086   .     S
C17    N4      1.300   .     S
C17    C28     1.486   .     S
C18    C27     1.507   .     S
C18    N3      1.289   .     S
C18    H72     1.087   .     S
C19    H76     1.086   .     S
C19    N2      1.300   .     S
C19    C26     1.486   .     S
C20    H78     1.087   .     S
C21    H82     1.086   .     S
C21    C32     1.486   .     S
C21    N8      1.300   .     S
C22    N7      1.289   .     S
C22    C31     1.507   .     S
C22    H84     1.087   .     S
C23    N6      1.300   .     S
C23    H88     1.086   .     S
C23    C30     1.486   .     S
C24    H90     1.087   .     S
N2     C120    1.428   .     S
N3     C117    1.427   .     S
N4     C118    1.428   .     S
N6     C116    1.428   .     S
N7     C113    1.427   .     S
N8     C114    1.428   .     S
N9     C37     1.340   .     S
N9     H1      0.959   .     S
N9     C34     1.339   .     S
N10    H2      0.959   .     S
N10    C36     1.339   .     S
N10    C39     1.340   .     S
N11    H3      0.959   .     S
N11    C33     1.340   .     S
N11    C38     1.339   .     S
N12    H4      0.959   .     S
N12    C40     1.339   .     S
N12    C35     1.340   .     S
C33    C41     1.390   .     S
C33    C65     1.544   .     S
C34    C42     1.391   .     S
C34    C66     1.545   .     S
C35    C43     1.390   .     S
C35    C67     1.544   .     S
C36    C68     1.545   .     S
C36    C44     1.391   .     S
C37    C45     1.390   .     S
C37    C69     1.544   .     S
C38    C46     1.391   .     S
C38    C70     1.545   .     S
C39    C47     1.390   .     S
C39    C71     1.544   .     S
C40    C72     1.545   .     S
C40    C48     1.391   .     S
C41    C46     1.405   .     S
C41    H5      1.081   .     S
C42    H6      1.081   .     S
C42    C45     1.405   .     S
C43    C48     1.405   .     S
C43    H7      1.081   .     S
C44    C47     1.405   .     S
C44    H8      1.081   .     S
C45    H9      1.081   .     S
C46    H10     1.081   .     S
C47    H11     1.081   .     S
C48    H12     1.081   .     S
N13    H93     0.964   .     S
N13    C49     1.415   .     S
N13    C53     1.415   .     S
N14    H94     0.963   .     S
N14    C54     1.415   .     S
N14    C50     1.415   .     S
N15    H95     0.964   .     S
N15    C51     1.415   .     S
N16    H96     0.963   .     S
N16    C56     1.415   .     S
C49    C57     1.476   .     S
C49    C68     1.391   .     S
C50    C67     1.391   .     S
C50    C58     1.476   .     S
C51    C66     1.391   .     S
C51    C59     1.476   .     S
C52    C60     1.476   .     S
C52    C65     1.391   .     S
C53    C61     1.476   .     S
C53    C72     1.391   .     S
C54    C71     1.391   .     S
C54    C62     1.476   .     S
C55    C70     1.391   .     S
C55    C63     1.476   .     S
C56    C64     1.476   .     S
C56    C69     1.391   .     S
C57    C61     1.351   .     S
C57    H13     1.082   .     S
C58    H14     1.082   .     S
C58    C62     1.349   .     S
C59    H15     1.082   .     S
C60    H16     1.082   .     S
C61    H17     1.082   .     S
C62    H18     1.082   .     S
C63    H19     1.082   .     S
C64    H20     1.082   .     S
C65    C73     1.474   .     S
C66    C74     1.473   .     S
C67    C75     1.474   .     S
C68    C76     1.473   .     S
C69    C77     1.474   .     S
C70    C78     1.473   .     S
C71    C79     1.474   .     S
C72    C80     1.473   .     S
C73    C96     1.402   .     S
C73    C84     1.402   .     S
C74    C95     1.402   .     S
C74    C83     1.402   .     S
C75    C94     1.402   .     S
C75    C82     1.402   .     S
C76    C93     1.402   .     S
C76    C81     1.402   .     S
C77    C88     1.402   .     S
C77    C92     1.402   .     S
C78    C87     1.402   .     S
C78    C91     1.402   .     S
C79    C86     1.402   .     S
C79    C90     1.402   .     S
C80    C85     1.402   .     S
C80    C89     1.402   .     S
C81    H24     1.082   .     S
C81    C100    1.399   .     S
C82    H23     1.082   .     S
C82    C99     1.399   .     S
C83    H22     1.082   .     S
C83    C98     1.399   .     S
C84    H21     1.082   .     S
C84    C97     1.399   .     S
C85    H28     1.082   .     S
C85    C104    1.399   .     S
C86    H27     1.082   .     S
C86    C103    1.399   .     S
C87    H26     1.082   .     S
C87    C102    1.399   .     S
C88    H25     1.082   .     S
C88    C101    1.399   .     S
C89    H32     1.082   .     S
C89    C108    1.399   .     S
C90    H31     1.082   .     S
C90    C107    1.399   .     S
C91    H30     1.082   .     S
C91    C106    1.399   .     S
C92    H29     1.082   .     S
C92    C105    1.399   .     S
C93    H36     1.082   .     S
C93    C112    1.399   .     S
C94    H35     1.082   .     S
C94    C111    1.399   .     S
C95    H34     1.082   .     S
C95    C110    1.399   .     S
C96    H33     1.082   .     S
C96    C109    1.399   .     S
C97    C113    1.398   .     S
C97    H37     1.081   .     S
C98    C114    1.398   .     S
C98    H38     1.081   .     S
C99    C115    1.398   .     S
C99    H39     1.081   .     S
C100   C116    1.398   .     S
C100   H40     1.081   .     S
C101   H41     1.081   .     S
C101   C117    1.398   .     S
C102   C118    1.398   .     S
C102   H42     1.081   .     S
C103   C119    1.398   .     S
C103   H43     1.081   .     S
C104   C120    1.398   .     S
C104   H44     1.081   .     S
C105   H45     1.081   .     S
C105   C117    1.398   .     S
C106   C118    1.398   .     S
C106   H46     1.081   .     S
C107   C119    1.398   .     S
C107   H47     1.081   .     S
C108   C120    1.398   .     S
C108   H48     1.081   .     S
C109   C113    1.398   .     S
C109   H49     1.081   .     S
C110   C114    1.398   .     S
C110   H50     1.081   .     S
C111   C115    1.398   .     S
C111   H51     1.081   .     S
C112   C116    1.398   .     S
C112   H52     1.081   .     S
H53    C121    1.112   .     S
H54    C122    1.113   .     S
H55    C123    1.112   .     S
H56    C124    1.113   .     S
H57    C125    1.112   .     S
H58    C126    1.113   .     S
H59    C127    1.112   .     S
H60    C128    1.113   .     S
H61    C125    1.112   .     S
H62    C126    1.113   .     S
H63    C127    1.112   .     S
H64    C128    1.113   .     S
H65    C121    1.112   .     S
H66    C122    1.113   .     S
H67    C123    1.112   .     S
H68    C124    1.113   .     S
O1     C127    1.419   .     S
O2     C126    1.428   .     S
C121   H73     1.109   .     S
C121   O7      1.419   .     S
C122   H74     1.109   .     S
C122   O6      1.428   .     S
O3     C125    1.419   .     S
O4     C128    1.428   .     S
C123   H79     1.109   .     S
C123   O5      1.419   .     S
C124   H80     1.109   .     S
C124   O8      1.428   .     S
C125   H85     1.109   .     S
C126   H86     1.109   .     S
C127   H91     1.109   .     S
C128   H92     1.109   .     S
