data_DTP-ANDI-COF
_audit_creation_date              2016-12-13
_audit_creation_method            'Materials Studio'
_symmetry_space_group_name_H-M    'P1'
_symmetry_Int_Tables_number       1
_symmetry_cell_setting            triclinic
loop_
_symmetry_equiv_pos_as_xyz
  x,y,z
_cell_length_a                    52.5630
_cell_length_b                    52.5520
_cell_length_c                    3.6000
_cell_angle_alpha                 90.0000
_cell_angle_beta                  90.0000
_cell_angle_gamma                 119.9736
loop_
_atom_site_label
_atom_site_type_symbol
_atom_site_fract_x
_atom_site_fract_y
_atom_site_fract_z
_atom_site_U_iso_or_equiv
_atom_site_adp_type
_atom_site_occupancy
C1     C     0.52720   0.49992   1.39483   0.00000  Uiso   1.00
C2     C     0.52718   0.52727   1.40082   0.00000  Uiso   1.00
C3     C     0.55473   0.55401   1.40644   0.00000  Uiso   1.00
C4     C     0.58072   0.55330   1.40650   0.00000  Uiso   1.00
C5     C     0.58073   0.52741   1.39801   0.00000  Uiso   1.00
C6     C     0.55476   0.50073   1.39045   0.00000  Uiso   1.00
O1     O     0.60874   0.53110   1.39383   0.00000  Uiso   1.00
B1     B     0.62638   0.56319   1.40147   0.00000  Uiso   1.00
O2     O     0.60872   0.57763   1.40911   0.00000  Uiso   1.00
C7     C     0.50008   0.47279   1.39115   0.00000  Uiso   1.00
C8     C     0.47275   0.47280   1.37693   0.00000  Uiso   1.00
C9     C     0.49926   0.44523   1.40357   0.00000  Uiso   1.00
C10    C     0.47258   0.41925   1.39579   0.00000  Uiso   1.00
C11    C     0.44672   0.41926   1.37952   0.00000  Uiso   1.00
C12    C     0.44601   0.44524   1.37156   0.00000  Uiso   1.00
O3     O     0.42239   0.39125   1.37802   0.00000  Uiso   1.00
B2     B     0.43681   0.37359   1.39531   0.00000  Uiso   1.00
O4     O     0.46889   0.39124   1.40729   0.00000  Uiso   1.00
C13    C     0.50005   0.52726   1.39575   0.00000  Uiso   1.00
C14    C     0.47276   0.49995   1.37386   0.00000  Uiso   1.00
C15    C     0.44607   0.50081   1.35141   0.00000  Uiso   1.00
C16    C     0.44674   0.52748   1.36132   0.00000  Uiso   1.00
C17    C     0.47252   0.55330   1.39218   0.00000  Uiso   1.00
C18    C     0.49917   0.55397   1.40991   0.00000  Uiso   1.00
O5     O     0.46880   0.57760   1.40048   0.00000  Uiso   1.00
B3     B     0.43680   0.56323   1.36989   0.00000  Uiso   1.00
O6     O     0.42245   0.53120   1.34460   0.00000  Uiso   1.00
H1     H     0.55712   0.57555   1.40655   0.00000  Uiso   1.00
H2     H     0.55715   0.48160   1.37665   0.00000  Uiso   1.00
H3     H     0.51836   0.44285   1.42383   0.00000  Uiso   1.00
H4     H     0.42448   0.44286   1.36569   0.00000  Uiso   1.00
H5     H     0.42464   0.48173   1.32458   0.00000  Uiso   1.00
H6     H     0.51822   0.57543   1.43602   0.00000  Uiso   1.00
C19    C     0.13942   0.83343   1.40380   0.00000  Uiso   1.00
C20    C     0.13944   0.80609   1.39183   0.00000  Uiso   1.00
C21    C     0.11189   0.77934   1.38893   0.00000  Uiso   1.00
C22    C     0.08590   0.78004   1.39799   0.00000  Uiso   1.00
C23    C     0.08589   0.80592   1.40650   0.00000  Uiso   1.00
C24    C     0.11186   0.83262   1.40793   0.00000  Uiso   1.00
O7     O     0.05788   0.80224   1.40910   0.00000  Uiso   1.00
B4     B     0.04024   0.77015   1.40146   0.00000  Uiso   1.00
O8     O     0.05790   0.75571   1.39382   0.00000  Uiso   1.00
C25    C     0.16654   0.86055   1.40902   0.00000  Uiso   1.00
C26    C     0.19387   0.86060   1.38584   0.00000  Uiso   1.00
C27    C     0.16736   0.88805   1.43925   0.00000  Uiso   1.00
C28    C     0.19404   0.91404   1.43977   0.00000  Uiso   1.00
C29    C     0.21991   0.91410   1.41502   0.00000  Uiso   1.00
C30    C     0.22061   0.88816   1.38978   0.00000  Uiso   1.00
O9     O     0.24423   0.94209   1.42392   0.00000  Uiso   1.00
B5     B     0.22981   0.95967   1.45751   0.00000  Uiso   1.00
O10    O     0.19773   0.94199   1.46842   0.00000  Uiso   1.00
C31    C     0.16657   0.80612   1.37786   0.00000  Uiso   1.00
C32    C     0.19387   0.83349   1.36496   0.00000  Uiso   1.00
C33    C     0.22055   0.83271   1.33321   0.00000  Uiso   1.00
C34    C     0.21988   0.80604   1.32583   0.00000  Uiso   1.00
C35    C     0.19410   0.78014   1.34818   0.00000  Uiso   1.00
C36    C     0.16745   0.77940   1.37419   0.00000  Uiso   1.00
O11    O     0.19783   0.75583   1.33929   0.00000  Uiso   1.00
B6     B     0.22982   0.77030   1.30766   0.00000  Uiso   1.00
O12    O     0.24417   0.80238   1.29871   0.00000  Uiso   1.00
H7     H     0.10950   0.75782   1.37569   0.00000  Uiso   1.00
H8     H     0.10947   0.85177   1.40749   0.00000  Uiso   1.00
H9     H     0.14826   0.89035   1.46732   0.00000  Uiso   1.00
H10    H     0.24214   0.89057   1.37842   0.00000  Uiso   1.00
H11    H     0.24198   0.85186   1.31190   0.00000  Uiso   1.00
H12    H     0.14840   0.75787   1.39244   0.00000  Uiso   1.00
C37    C     0.84890   0.67446   1.40147   0.00000  Uiso   1.00
C38    C     0.84887   0.71989   1.41638   0.00000  Uiso   1.00
C39    C     0.84892   0.62904   1.38655   0.00000  Uiso   1.00
C40    C     0.86443   0.70495   1.40892   0.00000  Uiso   1.00
C41    C     0.89539   0.72043   1.40892   0.00000  Uiso   1.00
C42    C     0.86445   0.65952   1.39401   0.00000  Uiso   1.00
C43    C     0.89541   0.67501   1.39401   0.00000  Uiso   1.00
C44    C     0.94377   0.72191   1.40146   0.00000  Uiso   1.00
C45    C     0.96036   0.75292   1.40892   0.00000  Uiso   1.00
C46    C     0.99116   0.76832   1.40892   0.00000  Uiso   1.00
C47    C     0.96039   0.70750   1.39401   0.00000  Uiso   1.00
C48    C     0.99118   0.72290   1.39400   0.00000  Uiso   1.00
C49    C     0.00711   0.75358   1.40146   0.00000  Uiso   1.00
O13    O     0.90842   0.74789   1.41580   0.00000  Uiso   1.00
O14    O     0.90847   0.66059   1.38713   0.00000  Uiso   1.00
N1     N     0.91115   0.70560   1.40146   0.00000  Uiso   1.00
H13    H     0.86080   0.74376   1.42226   0.00000  Uiso   1.00
H14    H     0.94927   0.76569   1.41493   0.00000  Uiso   1.00
H15    H     0.00309   0.79220   1.41480   0.00000  Uiso   1.00
H16    H     0.86086   0.61710   1.38067   0.00000  Uiso   1.00
H17    H     0.94931   0.68365   1.38799   0.00000  Uiso   1.00
H18    H     0.00313   0.71096   1.38813   0.00000  Uiso   1.00
C50    C     0.81772   0.65887   1.40147   0.00000  Uiso   1.00
C51    C     0.81775   0.61345   1.38655   0.00000  Uiso   1.00
C52    C     0.81770   0.70430   1.41638   0.00000  Uiso   1.00
C53    C     0.80220   0.62839   1.39401   0.00000  Uiso   1.00
C54    C     0.77123   0.61291   1.39401   0.00000  Uiso   1.00
C55    C     0.80217   0.67381   1.40892   0.00000  Uiso   1.00
C56    C     0.77121   0.65833   1.40892   0.00000  Uiso   1.00
C57    C     0.72285   0.61143   1.40147   0.00000  Uiso   1.00
C58    C     0.70626   0.58042   1.39401   0.00000  Uiso   1.00
C59    C     0.67546   0.56502   1.39401   0.00000  Uiso   1.00
C60    C     0.70623   0.62584   1.40893   0.00000  Uiso   1.00
C61    C     0.67544   0.61044   1.40893   0.00000  Uiso   1.00
C62    C     0.65951   0.57976   1.40147   0.00000  Uiso   1.00
O15    O     0.75820   0.58545   1.38713   0.00000  Uiso   1.00
O16    O     0.75815   0.67275   1.41580   0.00000  Uiso   1.00
N2     N     0.75547   0.62774   1.40147   0.00000  Uiso   1.00
H19    H     0.80582   0.58958   1.38067   0.00000  Uiso   1.00
H20    H     0.71735   0.56765   1.38800   0.00000  Uiso   1.00
H21    H     0.66353   0.54114   1.38813   0.00000  Uiso   1.00
H22    H     0.80576   0.71624   1.42226   0.00000  Uiso   1.00
H23    H     0.71731   0.64969   1.41494   0.00000  Uiso   1.00
H24    H     0.66349   0.62237   1.41481   0.00000  Uiso   1.00
C63    C     0.32552   0.67456   1.33643   0.00000  Uiso   1.00
C64    C     0.28027   0.62926   1.28188   0.00000  Uiso   1.00
C65    C     0.37076   0.71986   1.39098   0.00000  Uiso   1.00
C66    C     0.29512   0.65969   1.30682   0.00000  Uiso   1.00
C67    C     0.27964   0.67518   1.30217   0.00000  Uiso   1.00
C68    C     0.34036   0.70499   1.36137   0.00000  Uiso   1.00
C69    C     0.32488   0.72048   1.35671   0.00000  Uiso   1.00
C70    C     0.27807   0.72203   1.32217   0.00000  Uiso   1.00
C71    C     0.24715   0.70769   1.29240   0.00000  Uiso   1.00
C72    C     0.23174   0.72310   1.28777   0.00000  Uiso   1.00
C73    C     0.29239   0.75299   1.34694   0.00000  Uiso   1.00
C74    C     0.27698   0.76840   1.34231   0.00000  Uiso   1.00
C75    C     0.24639   0.75372   1.31264   0.00000  Uiso   1.00
O17    O     0.25226   0.66083   1.27506   0.00000  Uiso   1.00
O18    O     0.33921   0.74789   1.37990   0.00000  Uiso   1.00
N3     N     0.29438   0.70571   1.32707   0.00000  Uiso   1.00
H25    H     0.25647   0.61738   1.25859   0.00000  Uiso   1.00
H26    H     0.23445   0.68389   1.27208   0.00000  Uiso   1.00
H27    H     0.20794   0.71122   1.26447   0.00000  Uiso   1.00
H28    H     0.38262   0.74369   1.41069   0.00000  Uiso   1.00
H29    H     0.31617   0.76570   1.37060   0.00000  Uiso   1.00
H30    H     0.28885   0.79222   1.36202   0.00000  Uiso   1.00
C76    C     0.34111   0.65897   1.34112   0.00000  Uiso   1.00
C77    C     0.38635   0.70427   1.39567   0.00000  Uiso   1.00
C78    C     0.29586   0.61367   1.28657   0.00000  Uiso   1.00
C79    C     0.37150   0.67384   1.37073   0.00000  Uiso   1.00
C80    C     0.38698   0.65835   1.37538   0.00000  Uiso   1.00
C81    C     0.32626   0.62854   1.31618   0.00000  Uiso   1.00
C82    C     0.34174   0.61305   1.32084   0.00000  Uiso   1.00
C83    C     0.38855   0.61150   1.35538   0.00000  Uiso   1.00
C84    C     0.41948   0.62584   1.38515   0.00000  Uiso   1.00
C85    C     0.43488   0.61043   1.38978   0.00000  Uiso   1.00
C86    C     0.37424   0.58054   1.33061   0.00000  Uiso   1.00
C87    C     0.38964   0.56513   1.33524   0.00000  Uiso   1.00
C88    C     0.42023   0.57981   1.36491   0.00000  Uiso   1.00
O19    O     0.41436   0.67270   1.40249   0.00000  Uiso   1.00
O20    O     0.32741   0.58564   1.29765   0.00000  Uiso   1.00
N4     N     0.37224   0.62782   1.35048   0.00000  Uiso   1.00
H31    H     0.41015   0.71615   1.41896   0.00000  Uiso   1.00
H32    H     0.43217   0.64965   1.40547   0.00000  Uiso   1.00
H33    H     0.45868   0.62231   1.41308   0.00000  Uiso   1.00
H34    H     0.28400   0.58984   1.26686   0.00000  Uiso   1.00
H35    H     0.35046   0.56783   1.30695   0.00000  Uiso   1.00
H36    H     0.37777   0.54131   1.31553   0.00000  Uiso   1.00
C89    C     0.32552   0.15104   1.42875   0.00000  Uiso   1.00
C90    C     0.37091   0.15103   1.45732   0.00000  Uiso   1.00
C91    C     0.28012   0.15105   1.40018   0.00000  Uiso   1.00
C92    C     0.34044   0.13549   1.44537   0.00000  Uiso   1.00
C93    C     0.32495   0.10453   1.45002   0.00000  Uiso   1.00
C94    C     0.29505   0.13550   1.41680   0.00000  Uiso   1.00
C95    C     0.27956   0.10454   1.42145   0.00000  Uiso   1.00
C96    C     0.27806   0.05615   1.44301   0.00000  Uiso   1.00
C97    C     0.29245   0.03954   1.45979   0.00000  Uiso   1.00
C98    C     0.27705   0.00874   1.46442   0.00000  Uiso   1.00
C99    C     0.24706   0.03955   1.43122   0.00000  Uiso   1.00
C100   C     0.23166   0.00875   1.43585   0.00000  Uiso   1.00
C101   C     0.24638   0.99281   1.45253   0.00000  Uiso   1.00
O21    O     0.33935   0.09148   1.46516   0.00000  Uiso   1.00
O22    O     0.25211   0.09149   1.41024   0.00000  Uiso   1.00
N5     N     0.29438   0.08878   1.43811   0.00000  Uiso   1.00
H37    H     0.38283   0.13909   1.47038   0.00000  Uiso   1.00
H38    H     0.31629   0.05062   1.46964   0.00000  Uiso   1.00
H39    H     0.28897   0.99680   1.47747   0.00000  Uiso   1.00
H40    H     0.25626   0.13912   1.39071   0.00000  Uiso   1.00
H41    H     0.23431   0.05064   1.41804   0.00000  Uiso   1.00
H42    H     0.20780   0.99682   1.42638   0.00000  Uiso   1.00
C102   C     0.34111   0.18222   1.42406   0.00000  Uiso   1.00
C103   C     0.29571   0.18223   1.39549   0.00000  Uiso   1.00
C104   C     0.38650   0.18221   1.45264   0.00000  Uiso   1.00
C105   C     0.32619   0.19777   1.40744   0.00000  Uiso   1.00
C106   C     0.34167   0.22873   1.40279   0.00000  Uiso   1.00
C107   C     0.37157   0.19776   1.43601   0.00000  Uiso   1.00
C108   C     0.38706   0.22872   1.43136   0.00000  Uiso   1.00
C109   C     0.38856   0.27711   1.40981   0.00000  Uiso   1.00
C110   C     0.37417   0.29372   1.39303   0.00000  Uiso   1.00
C111   C     0.38957   0.32452   1.38840   0.00000  Uiso   1.00
C112   C     0.41956   0.29371   1.42160   0.00000  Uiso   1.00
C113   C     0.43496   0.32451   1.41697   0.00000  Uiso   1.00
C114   C     0.42024   0.34045   1.40029   0.00000  Uiso   1.00
O23    O     0.32727   0.24179   1.38766   0.00000  Uiso   1.00
O24    O     0.41451   0.24177   1.44257   0.00000  Uiso   1.00
N6     N     0.37225   0.24448   1.41471   0.00000  Uiso   1.00
H43    H     0.28379   0.19417   1.38244   0.00000  Uiso   1.00
H44    H     0.35033   0.28264   1.38317   0.00000  Uiso   1.00
H45    H     0.37765   0.33646   1.37534   0.00000  Uiso   1.00
H46    H     0.41036   0.19414   1.46211   0.00000  Uiso   1.00
H47    H     0.43231   0.28262   1.43478   0.00000  Uiso   1.00
H48    H     0.45882   0.33644   1.42644   0.00000  Uiso   1.00
loop_
_geom_bond_atom_site_label_1
_geom_bond_atom_site_label_2
_geom_bond_distance
_geom_bond_site_symmetry_2
_ccdc_geom_bond_type
C1     C7      1.426   .     S
C1     C6      1.428   .     S
C1     C2      1.438   .     S
C2     C13     1.426   .     S
C2     C3      1.428   .     S
C3     H1      1.075   .     S
C3     C4      1.385   .     S
C4     O2      1.386   .     S
C4     C5      1.361   .     S
C5     O1      1.386   .     S
C5     C6      1.385   .     S
C6     H2      1.075   .     S
O1     B1      1.464   .     S
B1     C62     1.509   .     S
B1     O2      1.464   .     S
C7     C8      1.438   .     S
C7     C9      1.428   .     S
C8     C14     1.426   .     S
C8     C12     1.428   .     S
C9     H3      1.075   .     S
C9     C10     1.385   .     S
C10    C11     1.361   .     S
C10    O4      1.386   .     S
C11    O3      1.386   .     S
C11    C12     1.385   .     S
C12    H4      1.075   .     S
O3     B2      1.464   .     S
B2     O4      1.464   .     S
B2     C114    1.509   .     S
C13    C18     1.428   .     S
C13    C14     1.438   .     S
C14    C15     1.428   .     S
C15    H5      1.075   .     S
C15    C16     1.385   .     S
C16    O6      1.386   .     S
C16    C17     1.361   .     S
C17    O5      1.386   .     S
C17    C18     1.385   .     S
C18    H6      1.075   .     S
O5     B3      1.464   .     S
B3     C88     1.509   .     S
B3     O6      1.464   .     S
C19    C24     1.428   .     S
C19    C25     1.426   .     S
C19    C20     1.438   .     S
C20    C31     1.426   .     S
C20    C21     1.428   .     S
C21    C22     1.385   .     S
C21    H7      1.075   .     S
C22    C23     1.361   .     S
C22    O8      1.386   .     S
C23    O7      1.386   .     S
C23    C24     1.385   .     S
C24    H8      1.075   .     S
O7     B4      1.464   .     S
B4     C49     1.509   .     S
B4     O8      1.464   .     S
C25    C26     1.438   .     S
C25    C27     1.428   .     S
C26    C30     1.428   .     S
C26    C32     1.426   .     S
C27    H9      1.075   .     S
C27    C28     1.385   .     S
C28    C29     1.361   .     S
C28    O10     1.386   .     S
C29    O9      1.386   .     S
C29    C30     1.385   .     S
C30    H10     1.075   .     S
O9     B5      1.464   .     S
B5     O10     1.464   .     S
B5     C101    1.509   .     S
C31    C36     1.428   .     S
C31    C32     1.438   .     S
C32    C33     1.428   .     S
C33    H11     1.075   .     S
C33    C34     1.385   .     S
C34    C35     1.361   .     S
C34    O12     1.386   .     S
C35    C36     1.385   .     S
C35    O11     1.386   .     S
C36    H12     1.075   .     S
O11    B6      1.464   .     S
B6     C75     1.509   .     S
B6     O12     1.464   .     S
C37    C40     1.388   .     S
C37    C42     1.388   .     S
C37    C50     1.419   .     S
C38    C52     1.419   .     S
C38    C40     1.388   .     S
C38    H13     1.087   .     S
C39    C42     1.388   .     S
C39    C51     1.419   .     S
C39    H16     1.087   .     S
C40    C41     1.410   .     S
C41    N1      1.393   .     S
C41    O13     1.251   .     S
C42    C43     1.410   .     S
C43    N1      1.393   .     S
C43    O14     1.251   .     S
C44    N1      1.485   .     S
C44    C47     1.413   .     S
C44    C45     1.413   .     S
C45    H14     1.087   .     S
C45    C46     1.402   .     S
C47    C48     1.402   .     S
C47    H17     1.087   .     S
C50    C53     1.388   .     S
C50    C55     1.388   .     S
C51    H19     1.087   .     S
C51    C53     1.388   .     S
C52    H22     1.087   .     S
C52    C55     1.388   .     S
C53    C54     1.410   .     S
C54    O15     1.251   .     S
C54    N2      1.393   .     S
C55    C56     1.410   .     S
C56    N2      1.393   .     S
C56    O16     1.251   .     S
C57    C60     1.413   .     S
C57    N2      1.485   .     S
C57    C58     1.413   .     S
C58    H20     1.087   .     S
C58    C59     1.402   .     S
C59    C62     1.397   .     S
C59    H21     1.087   .     S
C60    H23     1.087   .     S
C60    C61     1.402   .     S
C61    H24     1.087   .     S
C61    C62     1.397   .     S
C63    C68     1.388   .     S
C63    C66     1.388   .     S
C63    C76     1.419   .     S
C64    C66     1.388   .     S
C64    H25     1.087   .     S
C64    C78     1.419   .     S
C65    C68     1.388   .     S
C65    C77     1.419   .     S
C65    H28     1.087   .     S
C66    C67     1.410   .     S
C67    N3      1.393   .     S
C67    O17     1.251   .     S
C68    C69     1.410   .     S
C69    N3      1.393   .     S
C69    O18     1.251   .     S
C70    C71     1.413   .     S
C70    N3      1.485   .     S
C70    C73     1.413   .     S
C71    C72     1.402   .     S
C71    H26     1.087   .     S
C72    H27     1.087   .     S
C72    C75     1.397   .     S
C73    C74     1.402   .     S
C73    H29     1.087   .     S
C74    C75     1.397   .     S
C74    H30     1.087   .     S
C76    C81     1.388   .     S
C76    C79     1.388   .     S
C77    H31     1.087   .     S
C77    C79     1.388   .     S
C78    H34     1.087   .     S
C78    C81     1.388   .     S
C79    C80     1.410   .     S
C80    N4      1.393   .     S
C80    O19     1.251   .     S
C81    C82     1.410   .     S
C82    O20     1.251   .     S
C82    N4      1.393   .     S
C83    N4      1.485   .     S
C83    C84     1.413   .     S
C83    C86     1.413   .     S
C84    H32     1.087   .     S
C84    C85     1.402   .     S
C85    H33     1.087   .     S
C85    C88     1.397   .     S
C86    H35     1.087   .     S
C86    C87     1.402   .     S
C87    C88     1.397   .     S
C87    H36     1.087   .     S
C89    C94     1.388   .     S
C89    C92     1.388   .     S
C89    C102    1.419   .     S
C90    C92     1.388   .     S
C90    H37     1.087   .     S
C90    C104    1.419   .     S
C91    C94     1.388   .     S
C91    H40     1.087   .     S
C91    C103    1.419   .     S
C92    C93     1.410   .     S
C93    O21     1.251   .     S
C93    N5      1.393   .     S
C94    C95     1.410   .     S
C95    O22     1.251   .     S
C95    N5      1.393   .     S
C96    C99     1.413   .     S
C96    C97     1.413   .     S
C96    N5      1.485   .     S
C97    H38     1.087   .     S
C97    C98     1.402   .     S
C99    H41     1.087   .     S
C99    C100    1.402   .     S
C102   C105    1.388   .     S
C102   C107    1.388   .     S
C103   H43     1.087   .     S
C103   C105    1.388   .     S
C104   H46     1.087   .     S
C104   C107    1.388   .     S
C105   C106    1.410   .     S
C106   O23     1.251   .     S
C106   N6      1.393   .     S
C107   C108    1.410   .     S
C108   O24     1.251   .     S
C108   N6      1.393   .     S
C109   C110    1.413   .     S
C109   C112    1.413   .     S
C109   N6      1.485   .     S
C110   H44     1.087   .     S
C110   C111    1.402   .     S
C111   H45     1.087   .     S
C111   C114    1.397   .     S
C112   H47     1.087   .     S
C112   C113    1.402   .     S
C113   H48     1.087   .     S
C113   C114    1.397   .     S
