data_H2P-COF
_audit_creation_date              2016-12-13
_audit_creation_method            'Materials Studio'
_symmetry_space_group_name_H-M    'P1'
_symmetry_Int_Tables_number       1
_symmetry_cell_setting            triclinic
loop_
_symmetry_equiv_pos_as_xyz
  x,y,z
_cell_length_a                    39.3513
_cell_length_b                    33.3957
_cell_length_c                    6.7415
_cell_angle_alpha                 90.0000
_cell_angle_beta                  90.0000
_cell_angle_gamma                 90.0000
loop_
_atom_site_label
_atom_site_type_symbol
_atom_site_fract_x
_atom_site_fract_y
_atom_site_fract_z
_atom_site_U_iso_or_equiv
_atom_site_adp_type
_atom_site_occupancy
C1     C     0.74094   0.29049   0.50000   0.00000  Uiso   1.00
C2     C     0.24094   0.79049   0.50000   0.00000  Uiso   1.00
C3     C     0.25906   0.70951   0.50000   0.00000  Uiso   1.00
C4     C     0.75906   0.20951   0.50000   0.00000  Uiso   1.00
C5     C     0.25906   0.29049   0.50000   0.00000  Uiso   1.00
C6     C     0.75906   0.79049   0.50000   0.00000  Uiso   1.00
C7     C     0.74094   0.70951   0.50000   0.00000  Uiso   1.00
C8     C     0.24094   0.20951   0.50000   0.00000  Uiso   1.00
C9     C     0.78429   0.23902   0.50000   0.00000  Uiso   1.00
C10    C     0.28429   0.73903   0.50000   0.00000  Uiso   1.00
C11    C     0.21571   0.76098   0.50000   0.00000  Uiso   1.00
C12    C     0.71571   0.26098   0.50000   0.00000  Uiso   1.00
C13    C     0.21571   0.23902   0.50000   0.00000  Uiso   1.00
C14    C     0.71571   0.73903   0.50000   0.00000  Uiso   1.00
C15    C     0.78429   0.76098   0.50000   0.00000  Uiso   1.00
C16    C     0.28429   0.26098   0.50000   0.00000  Uiso   1.00
C17    C     0.69838   0.18854   0.50000   0.00000  Uiso   1.00
C18    C     0.19838   0.68855   0.50000   0.00000  Uiso   1.00
C19    C     0.30162   0.81146   0.50000   0.00000  Uiso   1.00
C20    C     0.80162   0.31146   0.50000   0.00000  Uiso   1.00
C21    C     0.30162   0.18854   0.50000   0.00000  Uiso   1.00
C22    C     0.80162   0.68855   0.50000   0.00000  Uiso   1.00
C23    C     0.69838   0.81146   0.50000   0.00000  Uiso   1.00
C24    C     0.19838   0.31146   0.50000   0.00000  Uiso   1.00
C25    C     0.77542   0.27979   0.50000   0.00000  Uiso   1.00
C26    C     0.27542   0.77979   0.50000   0.00000  Uiso   1.00
C27    C     0.22458   0.72021   0.50000   0.00000  Uiso   1.00
C28    C     0.72458   0.22021   0.50000   0.00000  Uiso   1.00
C29    C     0.22458   0.27979   0.50000   0.00000  Uiso   1.00
C30    C     0.72458   0.77979   0.50000   0.00000  Uiso   1.00
C31    C     0.77542   0.72021   0.50000   0.00000  Uiso   1.00
C32    C     0.27542   0.22021   0.50000   0.00000  Uiso   1.00
N1     N     0.83374   0.30258   0.50000   0.00000  Uiso   1.00
N2     N     0.33374   0.80258   0.50000   0.00000  Uiso   1.00
N3     N     0.16626   0.69742   0.50000   0.00000  Uiso   1.00
N4     N     0.66626   0.19742   0.50000   0.00000  Uiso   1.00
N5     N     0.16626   0.30258   0.50000   0.00000  Uiso   1.00
N6     N     0.66626   0.80258   0.50000   0.00000  Uiso   1.00
N7     N     0.83374   0.69742   0.50000   0.00000  Uiso   1.00
N8     N     0.33374   0.19742   0.50000   0.00000  Uiso   1.00
N9     N     0.55840   0.00000   0.50000   0.00000  Uiso   1.00
N10    N     0.05840   0.50000   0.50000   0.00000  Uiso   1.00
N11    N     0.44160   0.00000   0.50000   0.00000  Uiso   1.00
N12    N     0.94160   0.50000   0.50000   0.00000  Uiso   1.00
H1     H     0.53401   0.00000   0.50000   0.00000  Uiso   1.00
H2     H     0.03401   0.50000   0.50000   0.00000  Uiso   1.00
H3     H     0.46599   0.00000   0.50000   0.00000  Uiso   1.00
H4     H     0.96599   0.50000   0.50000   0.00000  Uiso   1.00
C33    C     0.57697   0.96639   0.50000   0.00000  Uiso   1.00
C34    C     0.07697   0.46639   0.50000   0.00000  Uiso   1.00
C35    C     0.42303   0.03361   0.50000   0.00000  Uiso   1.00
C36    C     0.92303   0.53361   0.50000   0.00000  Uiso   1.00
C37    C     0.42303   0.96639   0.50000   0.00000  Uiso   1.00
C38    C     0.92303   0.46639   0.50000   0.00000  Uiso   1.00
C39    C     0.57697   0.03361   0.50000   0.00000  Uiso   1.00
C40    C     0.07697   0.53361   0.50000   0.00000  Uiso   1.00
C41    C     0.61066   0.97896   0.50000   0.00000  Uiso   1.00
C42    C     0.11066   0.47896   0.50000   0.00000  Uiso   1.00
C43    C     0.38934   0.02104   0.50000   0.00000  Uiso   1.00
C44    C     0.88934   0.52104   0.50000   0.00000  Uiso   1.00
C45    C     0.38934   0.97896   0.50000   0.00000  Uiso   1.00
C46    C     0.88934   0.47896   0.50000   0.00000  Uiso   1.00
C47    C     0.61066   0.02104   0.50000   0.00000  Uiso   1.00
C48    C     0.11066   0.52104   0.50000   0.00000  Uiso   1.00
H5     H     0.63286   0.95988   0.50000   0.00000  Uiso   1.00
H6     H     0.13286   0.45988   0.50000   0.00000  Uiso   1.00
H7     H     0.36714   0.04012   0.50000   0.00000  Uiso   1.00
H8     H     0.86714   0.54012   0.50000   0.00000  Uiso   1.00
H9     H     0.36714   0.95988   0.50000   0.00000  Uiso   1.00
H10    H     0.86714   0.45988   0.50000   0.00000  Uiso   1.00
H11    H     0.63286   0.04012   0.50000   0.00000  Uiso   1.00
H12    H     0.13286   0.54012   0.50000   0.00000  Uiso   1.00
N13    N     0.00000   0.43327   0.50000   0.00000  Uiso   1.00
N14    N     0.50000   0.93327   0.50000   0.00000  Uiso   1.00
N15    N     0.00000   0.56673   0.50000   0.00000  Uiso   1.00
N16    N     0.50000   0.06673   0.50000   0.00000  Uiso   1.00
C49    C     0.02991   0.40974   0.50000   0.00000  Uiso   1.00
C50    C     0.52991   0.90974   0.50000   0.00000  Uiso   1.00
C51    C     0.97009   0.59026   0.50000   0.00000  Uiso   1.00
C52    C     0.47009   0.09026   0.50000   0.00000  Uiso   1.00
C53    C     0.97009   0.40974   0.50000   0.00000  Uiso   1.00
C54    C     0.47009   0.90974   0.50000   0.00000  Uiso   1.00
C55    C     0.02991   0.59026   0.50000   0.00000  Uiso   1.00
C56    C     0.52991   0.09026   0.50000   0.00000  Uiso   1.00
C57    C     0.01716   0.36818   0.50000   0.00000  Uiso   1.00
C58    C     0.51716   0.86818   0.50000   0.00000  Uiso   1.00
C59    C     0.98284   0.63182   0.50000   0.00000  Uiso   1.00
C60    C     0.48284   0.13182   0.50000   0.00000  Uiso   1.00
C61    C     0.98284   0.36818   0.50000   0.00000  Uiso   1.00
C62    C     0.48284   0.86818   0.50000   0.00000  Uiso   1.00
C63    C     0.01716   0.63182   0.50000   0.00000  Uiso   1.00
C64    C     0.51716   0.13182   0.50000   0.00000  Uiso   1.00
H13    H     0.03273   0.34149   0.50000   0.00000  Uiso   1.00
H14    H     0.53273   0.84149   0.50000   0.00000  Uiso   1.00
H15    H     0.96727   0.65852   0.50000   0.00000  Uiso   1.00
H16    H     0.46727   0.15852   0.50000   0.00000  Uiso   1.00
H17    H     0.96727   0.34149   0.50000   0.00000  Uiso   1.00
H18    H     0.46727   0.84149   0.50000   0.00000  Uiso   1.00
H19    H     0.03273   0.65852   0.50000   0.00000  Uiso   1.00
H20    H     0.53273   0.15852   0.50000   0.00000  Uiso   1.00
C65    C     0.56343   0.92298   0.50000   0.00000  Uiso   1.00
C66    C     0.06343   0.42298   0.50000   0.00000  Uiso   1.00
C67    C     0.43657   0.07702   0.50000   0.00000  Uiso   1.00
C68    C     0.93657   0.57702   0.50000   0.00000  Uiso   1.00
C69    C     0.43657   0.92298   0.50000   0.00000  Uiso   1.00
C70    C     0.93657   0.42298   0.50000   0.00000  Uiso   1.00
C71    C     0.56343   0.07702   0.50000   0.00000  Uiso   1.00
C72    C     0.06343   0.57702   0.50000   0.00000  Uiso   1.00
C73    C     0.58991   0.89178   0.50000   0.00000  Uiso   1.00
C74    C     0.08991   0.39177   0.50000   0.00000  Uiso   1.00
C75    C     0.41009   0.10823   0.50000   0.00000  Uiso   1.00
C76    C     0.91009   0.60823   0.50000   0.00000  Uiso   1.00
C77    C     0.41009   0.89178   0.50000   0.00000  Uiso   1.00
C78    C     0.91009   0.39177   0.50000   0.00000  Uiso   1.00
C79    C     0.58991   0.10823   0.50000   0.00000  Uiso   1.00
C80    C     0.08991   0.60823   0.50000   0.00000  Uiso   1.00
C81    C     0.10261   0.37696   0.67988   0.00000  Uiso   1.00
C82    C     0.60261   0.87696   0.67988   0.00000  Uiso   1.00
C83    C     0.89739   0.62304   0.67988   0.00000  Uiso   1.00
C84    C     0.39739   0.12304   0.67988   0.00000  Uiso   1.00
C85    C     0.89739   0.37696   0.32012   0.00000  Uiso   1.00
C86    C     0.39739   0.87696   0.32012   0.00000  Uiso   1.00
C87    C     0.10261   0.62304   0.32012   0.00000  Uiso   1.00
C88    C     0.60261   0.12304   0.32012   0.00000  Uiso   1.00
C89    C     0.89739   0.62304   0.32012   0.00000  Uiso   1.00
C90    C     0.39739   0.12304   0.32012   0.00000  Uiso   1.00
C91    C     0.10261   0.37696   0.32012   0.00000  Uiso   1.00
C92    C     0.60261   0.87696   0.32012   0.00000  Uiso   1.00
C93    C     0.10261   0.62304   0.67988   0.00000  Uiso   1.00
C94    C     0.60261   0.12304   0.67988   0.00000  Uiso   1.00
C95    C     0.89739   0.37696   0.67988   0.00000  Uiso   1.00
C96    C     0.39739   0.87696   0.67988   0.00000  Uiso   1.00
H21    H     0.59290   0.88827   0.81928   0.00000  Uiso   1.00
H22    H     0.09290   0.38827   0.81928   0.00000  Uiso   1.00
H23    H     0.40710   0.11173   0.81928   0.00000  Uiso   1.00
H24    H     0.90710   0.61173   0.81928   0.00000  Uiso   1.00
H25    H     0.40710   0.88827   0.18072   0.00000  Uiso   1.00
H26    H     0.90710   0.38827   0.18072   0.00000  Uiso   1.00
H27    H     0.59290   0.11173   0.18072   0.00000  Uiso   1.00
H28    H     0.09290   0.61173   0.18072   0.00000  Uiso   1.00
H29    H     0.40710   0.11173   0.18072   0.00000  Uiso   1.00
H30    H     0.90710   0.61173   0.18072   0.00000  Uiso   1.00
H31    H     0.59290   0.88827   0.18072   0.00000  Uiso   1.00
H32    H     0.09290   0.38827   0.18072   0.00000  Uiso   1.00
H33    H     0.59290   0.11173   0.81928   0.00000  Uiso   1.00
H34    H     0.09290   0.61173   0.81928   0.00000  Uiso   1.00
H35    H     0.40710   0.88827   0.81928   0.00000  Uiso   1.00
H36    H     0.90710   0.38827   0.81928   0.00000  Uiso   1.00
C97    C     0.62785   0.84743   0.67956   0.00000  Uiso   1.00
C98    C     0.12785   0.34743   0.67956   0.00000  Uiso   1.00
C99    C     0.37215   0.15257   0.67956   0.00000  Uiso   1.00
C100   C     0.87215   0.65257   0.67956   0.00000  Uiso   1.00
C101   C     0.37215   0.84743   0.32044   0.00000  Uiso   1.00
C102   C     0.87215   0.34743   0.32044   0.00000  Uiso   1.00
C103   C     0.62785   0.15257   0.32044   0.00000  Uiso   1.00
C104   C     0.12785   0.65257   0.32044   0.00000  Uiso   1.00
C105   C     0.37215   0.15257   0.32044   0.00000  Uiso   1.00
C106   C     0.87215   0.65257   0.32044   0.00000  Uiso   1.00
C107   C     0.62785   0.84743   0.32044   0.00000  Uiso   1.00
C108   C     0.12785   0.34743   0.32044   0.00000  Uiso   1.00
C109   C     0.62785   0.15257   0.67956   0.00000  Uiso   1.00
C110   C     0.12785   0.65257   0.67956   0.00000  Uiso   1.00
C111   C     0.37215   0.84743   0.67956   0.00000  Uiso   1.00
C112   C     0.87215   0.34743   0.67956   0.00000  Uiso   1.00
H37    H     0.63766   0.83583   0.81787   0.00000  Uiso   1.00
H38    H     0.13766   0.33583   0.81787   0.00000  Uiso   1.00
H39    H     0.36234   0.16417   0.81787   0.00000  Uiso   1.00
H40    H     0.86234   0.66417   0.81787   0.00000  Uiso   1.00
H41    H     0.36234   0.83583   0.18214   0.00000  Uiso   1.00
H42    H     0.86234   0.33583   0.18214   0.00000  Uiso   1.00
H43    H     0.63766   0.16417   0.18214   0.00000  Uiso   1.00
H44    H     0.13766   0.66417   0.18214   0.00000  Uiso   1.00
H45    H     0.36234   0.16417   0.18214   0.00000  Uiso   1.00
H46    H     0.86234   0.66417   0.18214   0.00000  Uiso   1.00
H47    H     0.63766   0.83583   0.18214   0.00000  Uiso   1.00
H48    H     0.13766   0.33583   0.18214   0.00000  Uiso   1.00
H49    H     0.63766   0.16417   0.81787   0.00000  Uiso   1.00
H50    H     0.13766   0.66417   0.81787   0.00000  Uiso   1.00
H51    H     0.36234   0.83583   0.81787   0.00000  Uiso   1.00
H52    H     0.86234   0.33583   0.81787   0.00000  Uiso   1.00
C113   C     0.64058   0.83277   0.50000   0.00000  Uiso   1.00
C114   C     0.14058   0.33277   0.50000   0.00000  Uiso   1.00
C115   C     0.35942   0.16723   0.50000   0.00000  Uiso   1.00
C116   C     0.85942   0.66723   0.50000   0.00000  Uiso   1.00
C117   C     0.35942   0.83277   0.50000   0.00000  Uiso   1.00
C118   C     0.85942   0.33277   0.50000   0.00000  Uiso   1.00
C119   C     0.64058   0.16723   0.50000   0.00000  Uiso   1.00
C120   C     0.14058   0.66723   0.50000   0.00000  Uiso   1.00
H53    H     0.73352   0.32172   0.50000   0.00000  Uiso   1.00
H54    H     0.81074   0.23008   0.50000   0.00000  Uiso   1.00
H55    H     0.70633   0.15742   0.50000   0.00000  Uiso   1.00
H56    H     0.23352   0.82172   0.50000   0.00000  Uiso   1.00
H57    H     0.31074   0.73008   0.50000   0.00000  Uiso   1.00
H58    H     0.20633   0.65742   0.50000   0.00000  Uiso   1.00
H59    H     0.26648   0.67828   0.50000   0.00000  Uiso   1.00
H60    H     0.18926   0.76992   0.50000   0.00000  Uiso   1.00
H61    H     0.29367   0.84258   0.50000   0.00000  Uiso   1.00
H62    H     0.76648   0.17828   0.50000   0.00000  Uiso   1.00
H63    H     0.68926   0.26992   0.50000   0.00000  Uiso   1.00
H64    H     0.79367   0.34258   0.50000   0.00000  Uiso   1.00
H65    H     0.26648   0.32172   0.50000   0.00000  Uiso   1.00
H66    H     0.18926   0.23008   0.50000   0.00000  Uiso   1.00
H67    H     0.29367   0.15742   0.50000   0.00000  Uiso   1.00
H68    H     0.76648   0.82172   0.50000   0.00000  Uiso   1.00
H69    H     0.68926   0.73008   0.50000   0.00000  Uiso   1.00
H70    H     0.79367   0.65742   0.50000   0.00000  Uiso   1.00
H71    H     0.73352   0.67828   0.50000   0.00000  Uiso   1.00
H72    H     0.81074   0.76992   0.50000   0.00000  Uiso   1.00
H73    H     0.70633   0.84258   0.50000   0.00000  Uiso   1.00
H74    H     0.23352   0.17828   0.50000   0.00000  Uiso   1.00
H75    H     0.31074   0.26992   0.50000   0.00000  Uiso   1.00
H76    H     0.20633   0.34258   0.50000   0.00000  Uiso   1.00
H77    H     0.00000   0.46214   0.50000   0.00000  Uiso   1.00
H78    H     0.50000   0.96215   0.50000   0.00000  Uiso   1.00
H79    H     0.00000   0.53786   0.50000   0.00000  Uiso   1.00
H80    H     0.50000   0.03786   0.50000   0.00000  Uiso   1.00
loop_
_geom_bond_atom_site_label_1
_geom_bond_atom_site_label_2
_geom_bond_distance
_geom_bond_site_symmetry_2
_ccdc_geom_bond_type
C1     C25     1.403   .     S
C1     H53     1.083   .     S
C1     C12     1.399   .     S
C2     C11     1.399   .     S
C2     C26     1.403   .     S
C2     H56     1.083   .     S
C3     C27     1.403   .     S
C3     C10     1.399   .     S
C3     H59     1.083   .     S
C4     H62     1.083   .     S
C4     C28     1.403   .     S
C4     C9      1.399   .     S
C5     C29     1.403   .     S
C5     H65     1.083   .     S
C5     C16     1.399   .     S
C6     C30     1.403   .     S
C6     C15     1.399   .     S
C6     H68     1.083   .     S
C7     C14     1.399   .     S
C7     C31     1.403   .     S
C7     H71     1.083   .     S
C8     H74     1.083   .     S
C8     C13     1.399   .     S
C8     C32     1.403   .     S
C9     H54     1.083   .     S
C9     C25     1.405   .     S
C10    H57     1.083   .     S
C10    C26     1.405   .     S
C11    H60     1.083   .     S
C11    C27     1.405   .     S
C12    C28     1.405   .     S
C12    H63     1.083   .     S
C13    H66     1.083   .     S
C13    C29     1.405   .     S
C14    H69     1.083   .     S
C14    C30     1.405   .     S
C15    H72     1.083   .     S
C15    C31     1.405   .     S
C16    C32     1.405   .     S
C16    H75     1.083   .     S
C17    N4      1.298   .     S
C17    C28     1.477   .     S
C17    H55     1.085   .     S
C18    H58     1.085   .     S
C18    C27     1.477   .     S
C18    N3      1.298   .     S
C19    H61     1.085   .     S
C19    N2      1.298   .     S
C19    C26     1.477   .     S
C20    C25     1.477   .     S
C20    N1      1.298   .     S
C20    H64     1.085   .     S
C21    N8      1.298   .     S
C21    C32     1.477   .     S
C21    H67     1.085   .     S
C22    H70     1.085   .     S
C22    C31     1.477   .     S
C22    N7      1.298   .     S
C23    H73     1.085   .     S
C23    N6      1.298   .     S
C23    C30     1.477   .     S
C24    C29     1.477   .     S
C24    N5      1.298   .     S
C24    H76     1.085   .     S
N1     C118    1.427   .     S
N2     C117    1.427   .     S
N3     C120    1.427   .     S
N4     C119    1.427   .     S
N5     C114    1.427   .     S
N6     C113    1.427   .     S
N7     C116    1.427   .     S
N8     C115    1.427   .     S
N9     C39     1.339   .     S
N9     H1      0.960   .     S
N10    H2      0.960   .     S
N10    C40     1.339   .     S
N10    C34     1.339   .     S
N11    C35     1.339   .     S
N11    H3      0.960   .     S
N12    H4      0.960   .     S
N12    C36     1.339   .     S
N12    C38     1.339   .     S
C33    C41     1.391   .     S
C33    C65     1.544   .     S
C34    C42     1.391   .     S
C34    C66     1.544   .     S
C35    C43     1.391   .     S
C35    C67     1.544   .     S
C36    C68     1.544   .     S
C36    C44     1.391   .     S
C37    C45     1.391   .     S
C37    C69     1.544   .     S
C38    C46     1.391   .     S
C38    C70     1.544   .     S
C39    C47     1.391   .     S
C39    C71     1.544   .     S
C40    C72     1.544   .     S
C40    C48     1.391   .     S
C41    H5      1.081   .     S
C42    C48     1.405   .     S
C42    H6      1.081   .     S
C43    H7      1.081   .     S
C44    C46     1.405   .     S
C44    H8      1.081   .     S
C45    H9      1.081   .     S
C46    H10     1.081   .     S
C47    H11     1.081   .     S
C48    H12     1.081   .     S
N13    H77     0.964   .     S
N13    C49     1.415   .     S
N14    C50     1.415   .     S
N14    C54     1.415   .     S
N14    H78     0.964   .     S
N15    H79     0.964   .     S
N15    C55     1.415   .     S
N16    C56     1.415   .     S
N16    C52     1.415   .     S
N16    H80     0.964   .     S
C49    C66     1.391   .     S
C49    C57     1.476   .     S
C50    C65     1.391   .     S
C50    C58     1.476   .     S
C51    C59     1.476   .     S
C51    C68     1.391   .     S
C52    C67     1.391   .     S
C52    C60     1.476   .     S
C53    C70     1.391   .     S
C53    C61     1.476   .     S
C54    C69     1.391   .     S
C54    C62     1.476   .     S
C55    C63     1.476   .     S
C55    C72     1.391   .     S
C56    C71     1.391   .     S
C56    C64     1.476   .     S
C57    H13     1.082   .     S
C58    C62     1.350   .     S
C58    H14     1.082   .     S
C59    H15     1.082   .     S
C60    H16     1.082   .     S
C60    C64     1.350   .     S
C61    H17     1.082   .     S
C62    H18     1.082   .     S
C63    H19     1.082   .     S
C64    H20     1.082   .     S
C65    C73     1.474   .     S
C66    C74     1.474   .     S
C67    C75     1.474   .     S
C68    C76     1.474   .     S
C69    C77     1.474   .     S
C70    C78     1.474   .     S
C71    C79     1.474   .     S
C72    C80     1.474   .     S
C73    C92     1.402   .     S
C73    C82     1.402   .     S
C74    C91     1.402   .     S
C74    C81     1.402   .     S
C75    C90     1.402   .     S
C75    C84     1.402   .     S
C76    C89     1.402   .     S
C76    C83     1.402   .     S
C77    C86     1.402   .     S
C77    C96     1.402   .     S
C78    C85     1.402   .     S
C78    C95     1.402   .     S
C79    C88     1.402   .     S
C79    C94     1.402   .     S
C80    C87     1.402   .     S
C80    C93     1.402   .     S
C81    C98     1.399   .     S
C81    H22     1.083   .     S
C82    C97     1.399   .     S
C82    H21     1.083   .     S
C83    C100    1.399   .     S
C83    H24     1.083   .     S
C84    C99     1.399   .     S
C84    H23     1.083   .     S
C85    C102    1.399   .     S
C85    H26     1.083   .     S
C86    C101    1.399   .     S
C86    H25     1.083   .     S
C87    C104    1.399   .     S
C87    H28     1.083   .     S
C88    C103    1.399   .     S
C88    H27     1.083   .     S
C89    C106    1.399   .     S
C89    H30     1.083   .     S
C90    C105    1.399   .     S
C90    H29     1.083   .     S
C91    C108    1.399   .     S
C91    H32     1.083   .     S
C92    C107    1.399   .     S
C92    H31     1.083   .     S
C93    C110    1.399   .     S
C93    H34     1.083   .     S
C94    C109    1.399   .     S
C94    H33     1.083   .     S
C95    C112    1.399   .     S
C95    H36     1.083   .     S
C96    C111    1.399   .     S
C96    H35     1.083   .     S
C97    C113    1.399   .     S
C97    H37     1.081   .     S
C98    C114    1.399   .     S
C98    H38     1.081   .     S
C99    C115    1.399   .     S
C99    H39     1.081   .     S
C100   C116    1.399   .     S
C100   H40     1.081   .     S
C101   C117    1.399   .     S
C101   H41     1.081   .     S
C102   C118    1.399   .     S
C102   H42     1.081   .     S
C103   C119    1.399   .     S
C103   H43     1.081   .     S
C104   C120    1.399   .     S
C104   H44     1.081   .     S
C105   C115    1.399   .     S
C105   H45     1.081   .     S
C106   C116    1.399   .     S
C106   H46     1.081   .     S
C107   C113    1.399   .     S
C107   H47     1.081   .     S
C108   C114    1.399   .     S
C108   H48     1.081   .     S
C109   C119    1.399   .     S
C109   H49     1.081   .     S
C110   C120    1.399   .     S
C110   H50     1.081   .     S
C111   C117    1.399   .     S
C111   H51     1.081   .     S
C112   C118    1.399   .     S
C112   H52     1.081   .     S
