data_HBC-COF-real
_audit_creation_date              2016-12-13
_audit_creation_method            'Materials Studio'
_symmetry_space_group_name_H-M    'P1'
_symmetry_Int_Tables_number       1
_symmetry_cell_setting            triclinic
loop_
_symmetry_equiv_pos_as_xyz
  x,y,z
_cell_length_a                    30.1777
_cell_length_b                    30.2043
_cell_length_c                    3.7340
_cell_angle_alpha                 107.5980
_cell_angle_beta                  80.6733
_cell_angle_gamma                 120.0753
loop_
_atom_site_label
_atom_site_type_symbol
_atom_site_fract_x
_atom_site_fract_y
_atom_site_fract_z
_atom_site_U_iso_or_equiv
_atom_site_adp_type
_atom_site_occupancy
C1     C     0.04671   0.99999   0.01697   0.00000  Uiso   1.00
C2     C     0.00047   0.04633  -0.02495   0.00000  Uiso   1.00
C3     C     0.95223   0.95385   0.02114   0.00000  Uiso   1.00
C4     C     0.95289   0.00030  -0.00403   0.00000  Uiso   1.00
C5     C     0.99915   0.95379   0.03348   0.00000  Uiso   1.00
C6     C     0.04736   0.04616  -0.01519   0.00000  Uiso   1.00
C7     C     0.09356   0.99967   0.02663   0.00000  Uiso   1.00
C8     C     0.00115   0.09275  -0.05102   0.00000  Uiso   1.00
C9     C     0.90465   0.90747   0.03416   0.00000  Uiso   1.00
C10    C     0.90598   0.00071  -0.00852   0.00000  Uiso   1.00
C11    C     0.99852   0.90730   0.05741   0.00000  Uiso   1.00
C12    C     0.09488   0.09251  -0.03101   0.00000  Uiso   1.00
C13    C     0.04531   0.90752   0.08299   0.00000  Uiso   1.00
C14    C     0.09561   0.13880  -0.06402   0.00000  Uiso   1.00
C15    C     0.85830   0.95462   0.01259   0.00000  Uiso   1.00
C16    C     0.95429   0.09396  -0.03757   0.00000  Uiso   1.00
C17    C     0.90403   0.86086   0.05717   0.00000  Uiso   1.00
C18    C     0.14111   0.04559  -0.00053   0.00000  Uiso   1.00
C19    C     0.09298   0.95341   0.05878   0.00000  Uiso   1.00
C20    C     0.04862   0.13829  -0.08600   0.00000  Uiso   1.00
C21    C     0.85762   0.90748   0.02238   0.00000  Uiso   1.00
C22    C     0.90667   0.04733  -0.03241   0.00000  Uiso   1.00
C23    C     0.95096   0.86015   0.05094   0.00000  Uiso   1.00
C24    C     0.14176   0.09277  -0.00862   0.00000  Uiso   1.00
C25    C     0.04222   0.86073   0.12403   0.00000  Uiso   1.00
C26    C     0.14386   0.18491  -0.06019   0.00000  Uiso   1.00
C27    C     0.81263   0.95788   0.02925   0.00000  Uiso   1.00
C28    C     0.95704   0.14294  -0.01849   0.00000  Uiso   1.00
C29    C     0.85590   0.81645   0.09243   0.00000  Uiso   1.00
C30    C     0.18680   0.04217  -0.02654   0.00000  Uiso   1.00
C31    C     0.18799   0.99774   0.00543   0.00000  Uiso   1.00
C32    C     0.00246   0.18771  -0.07616   0.00000  Uiso   1.00
C33    C     0.80903   0.81374   0.05621   0.00000  Uiso   1.00
C34    C     0.81166   0.00200  -0.01219   0.00000  Uiso   1.00
C35    C     0.99694   0.81182   0.07219   0.00000  Uiso   1.00
C36    C     0.19047   0.18745  -0.01779   0.00000  Uiso   1.00
C37    C     0.14072   0.95440   0.05292   0.00000  Uiso   1.00
C38    C     0.04693   0.18235  -0.13420   0.00000  Uiso   1.00
C39    C     0.81124   0.85940   0.01450   0.00000  Uiso   1.00
C40    C     0.85913   0.04522  -0.05735   0.00000  Uiso   1.00
C41    C     0.95226   0.81300   0.02664   0.00000  Uiso   1.00
C42    C     0.18808   0.14121   0.01303   0.00000  Uiso   1.00
H43    H     0.14663   0.21873  -0.08485   0.00000  Uiso   1.00
H44    H     0.77821   0.92802   0.07855   0.00000  Uiso   1.00
H45    H     0.07348   0.86102   0.19316   0.00000  Uiso   1.00
H46    H     0.85366   0.78469   0.15207   0.00000  Uiso   1.00
H47    H     0.22102   0.07200  -0.08010   0.00000  Uiso   1.00
H48    H     0.92528   0.14729   0.04698   0.00000  Uiso   1.00
H49    H     0.22185   0.14463   0.06280   0.00000  Uiso   1.00
H50    H     0.85774   0.07526  -0.11583   0.00000  Uiso   1.00
H51    H     0.91995   0.77755  -0.03432   0.00000  Uiso   1.00
H52    H     0.77721   0.85592  -0.02833   0.00000  Uiso   1.00
H53    H     0.14264   0.92305   0.08062   0.00000  Uiso   1.00
H54    H     0.07872   0.21221  -0.21432   0.00000  Uiso   1.00
C55    C     0.00353   0.23580  -0.06878   0.00000  Uiso   1.00
C56    C     0.76169   0.76704   0.06052   0.00000  Uiso   1.00
C57    C     0.23491   0.99685  -0.01115   0.00000  Uiso   1.00
C58    C     0.99642   0.76380   0.05829   0.00000  Uiso   1.00
C59    C     0.23793   0.23457  -0.00476   0.00000  Uiso   1.00
C60    C     0.76491   0.00280  -0.00824   0.00000  Uiso   1.00
C61    C     0.00567   0.33304  -0.04246   0.00000  Uiso   1.00
C62    C     0.66641   0.67277   0.06829   0.00000  Uiso   1.00
C63    C     0.32942   0.99512  -0.03825   0.00000  Uiso   1.00
C64    C     0.99492   0.66638   0.01527   0.00000  Uiso   1.00
C65    C     0.33354   0.32931   0.01559   0.00000  Uiso   1.00
C66    C     0.67083   0.00467  -0.00033   0.00000  Uiso   1.00
C67    C     0.04843   0.33344   0.06521   0.00000  Uiso   1.00
C68    C     0.67157   0.72292   0.26248   0.00000  Uiso   1.00
C69    C     0.28627   0.95098  -0.23301   0.00000  Uiso   1.00
C70    C     0.95228   0.67377   0.15417   0.00000  Uiso   1.00
C71    C     0.32847   0.27972  -0.19403   0.00000  Uiso   1.00
C72    C     0.71393   0.04925   0.19162   0.00000  Uiso   1.00
C73    C     0.04721   0.28590   0.05642   0.00000  Uiso   1.00
C74    C     0.71837   0.76933   0.25887   0.00000  Uiso   1.00
C75    C     0.23977   0.95176  -0.22101   0.00000  Uiso   1.00
C76    C     0.95314   0.72161   0.17837   0.00000  Uiso   1.00
C77    C     0.28149   0.23307  -0.20465   0.00000  Uiso   1.00
C78    C     0.76022   0.04842   0.18877   0.00000  Uiso   1.00
C79    C     0.75605   0.71640  -0.13657   0.00000  Uiso   1.00
C80    C     0.27868   0.04127   0.18113   0.00000  Uiso   1.00
C81    C     0.96083   0.23625  -0.17820   0.00000  Uiso   1.00
C82    C     0.24348   0.28461   0.20866   0.00000  Uiso   1.00
C83    C     0.72118   0.95796  -0.19805   0.00000  Uiso   1.00
C84    C     0.03888   0.75533  -0.08577   0.00000  Uiso   1.00
C85    C     0.70924   0.66998  -0.13204   0.00000  Uiso   1.00
C86    C     0.32516   0.04050   0.16787   0.00000  Uiso   1.00
C87    C     0.96164   0.28378  -0.16326   0.00000  Uiso   1.00
C88    C     0.29049   0.33131   0.21787   0.00000  Uiso   1.00
C89    C     0.67492   0.95882  -0.19458   0.00000  Uiso   1.00
C90    C     0.03843   0.70783  -0.10410   0.00000  Uiso   1.00
H91    H     0.92836   0.20171  -0.27561   0.00000  Uiso   1.00
H92    H     0.78597   0.71282  -0.28964   0.00000  Uiso   1.00
H93    H     0.27708   0.07471   0.33692   0.00000  Uiso   1.00
H94    H     0.07072   0.78344  -0.18681   0.00000  Uiso   1.00
H95    H     0.21335   0.28749   0.36335   0.00000  Uiso   1.00
H96    H     0.72263   0.92411  -0.34438   0.00000  Uiso   1.00
H97    H     0.93012   0.28195  -0.24745   0.00000  Uiso   1.00
H98    H     0.70677   0.63433  -0.27768   0.00000  Uiso   1.00
H99    H     0.35558   0.07325   0.31189   0.00000  Uiso   1.00
H100   H     0.06980   0.70357  -0.21018   0.00000  Uiso   1.00
H101   H     0.29298   0.36657   0.37461   0.00000  Uiso   1.00
H102   H     0.64448   0.92577  -0.33612   0.00000  Uiso   1.00
H103   H     0.64103   0.72575   0.40987   0.00000  Uiso   1.00
H104   H     0.28875   0.91794  -0.38685   0.00000  Uiso   1.00
H105   H     0.08064   0.36876   0.15517   0.00000  Uiso   1.00
H106   H     0.35920   0.27750  -0.34292   0.00000  Uiso   1.00
H107   H     0.71157   0.08266   0.33678   0.00000  Uiso   1.00
H108   H     0.92040   0.64424   0.24282   0.00000  Uiso   1.00
H109   H     0.72049   0.80488   0.40608   0.00000  Uiso   1.00
H110   H     0.20958   0.91914  -0.37095   0.00000  Uiso   1.00
H111   H     0.07879   0.28875   0.14971   0.00000  Uiso   1.00
H112   H     0.27937   0.19796  -0.36380   0.00000  Uiso   1.00
H113   H     0.79039   0.08141   0.33623   0.00000  Uiso   1.00
H114   H     0.92149   0.72515   0.28919   0.00000  Uiso   1.00
C115   C     0.54168   0.98796  -0.08442   0.00000  Uiso   1.00
C116   C     0.01279   0.55057  -0.05956   0.00000  Uiso   1.00
C117   C     0.44878   0.46197   0.11012   0.00000  Uiso   1.00
C118   C     0.45895   0.01189   0.03312   0.00000  Uiso   1.00
C119   C     0.98793   0.44581  -0.05799   0.00000  Uiso   1.00
C120   C     0.55168   0.54019   0.00052   0.00000  Uiso   1.00
C121   C     0.54816   0.03804   0.13420   0.00000  Uiso   1.00
C122   C     0.96147   0.51183  -0.02065   0.00000  Uiso   1.00
C123   C     0.48439   0.44729  -0.11134   0.00000  Uiso   1.00
C124   C     0.45250   0.96185  -0.18628   0.00000  Uiso   1.00
C125   C     0.03928   0.48459  -0.09488   0.00000  Uiso   1.00
C126   C     0.51613   0.55488   0.22285   0.00000  Uiso   1.00
C127   C     0.50754   0.04983   0.19188   0.00000  Uiso   1.00
C128   C     0.94920   0.46028  -0.02157   0.00000  Uiso   1.00
C129   C     0.53495   0.48568  -0.16491   0.00000  Uiso   1.00
C130   C     0.49312   0.95006  -0.24393   0.00000  Uiso   1.00
C131   C     0.05152   0.53606  -0.09644   0.00000  Uiso   1.00
C132   C     0.46556   0.51648   0.27664   0.00000  Uiso   1.00
H133   H     0.58267   0.06643   0.25495   0.00000  Uiso   1.00
H134   H     0.93244   0.52090   0.00778   0.00000  Uiso   1.00
H135   H     0.47366   0.40827  -0.23737   0.00000  Uiso   1.00
H136   H     0.41798   0.93348  -0.30707   0.00000  Uiso   1.00
H137   H     0.06826   0.47546  -0.12324   0.00000  Uiso   1.00
H138   H     0.52691   0.59392   0.34896   0.00000  Uiso   1.00
H139   H     0.51386   0.08651   0.35281   0.00000  Uiso   1.00
H140   H     0.91157   0.43342   0.00607   0.00000  Uiso   1.00
H141   H     0.55939   0.47331  -0.32827   0.00000  Uiso   1.00
H142   H     0.48682   0.91339  -0.40493   0.00000  Uiso   1.00
H143   H     0.08913   0.56287  -0.12527   0.00000  Uiso   1.00
H144   H     0.44112   0.52882   0.44019   0.00000  Uiso   1.00
N145   N     0.38014   0.37180   0.00342   0.00000  Uiso   1.00
N146   N     0.62810   0.00931   0.01709   0.00000  Uiso   1.00
N147   N     0.99070   0.61933   0.00846   0.00000  Uiso   1.00
N148   N     0.61996   0.63054   0.09093   0.00000  Uiso   1.00
N149   N     0.37229   0.99052  -0.06316   0.00000  Uiso   1.00
N150   N     0.01039   0.38053  -0.02933   0.00000  Uiso   1.00
C151   C     0.39796   0.42413   0.16717   0.00000  Uiso   1.00
C152   C     0.58176   0.97523  -0.14444   0.00000  Uiso   1.00
C153   C     0.02582   0.60226  -0.06318   0.00000  Uiso   1.00
C154   C     0.60238   0.57797  -0.06011   0.00000  Uiso   1.00
C155   C     0.41880   0.02454   0.09611   0.00000  Uiso   1.00
C156   C     0.97477   0.39389  -0.06017   0.00000  Uiso   1.00
H157   H     0.37412   0.43677   0.33645   0.00000  Uiso   1.00
H158   H     0.57536   0.93907  -0.31546   0.00000  Uiso   1.00
H159   H     0.06297   0.62753  -0.11858   0.00000  Uiso   1.00
H160   H     0.62631   0.56503  -0.22438   0.00000  Uiso   1.00
H161   H     0.42526   0.06062   0.26881   0.00000  Uiso   1.00
H162   H     0.93703   0.36571  -0.08285   0.00000  Uiso   1.00
loop_
_geom_bond_atom_site_label_1
_geom_bond_atom_site_label_2
_geom_bond_distance
_geom_bond_site_symmetry_2
_ccdc_geom_bond_type
C1     C7      1.425   .     S
C2     C6      1.424   .     S
C2     C8      1.424   .     S
C3     C5      1.425   .     S
C3     C9      1.425   .     S
C4     C10     1.425   .     S
C5     C11     1.424   .     S
C6     C12     1.425   .     S
C7     C19     1.430   .     S
C8     C20     1.426   .     S
C9     C21     1.427   .     S
C9     C17     1.427   .     S
C10    C22     1.427   .     S
C11    C23     1.425   .     S
C12    C24     1.427   .     S
C12    C14     1.429   .     S
C13    C19     1.426   .     S
C13    C25     1.423   .     S
C14    C26     1.422   .     S
C14    C20     1.426   .     S
C15    C27     1.421   .     S
C15    C21     1.425   .     S
C16    C28     1.420   .     S
C16    C22     1.424   .     S
C17    C23     1.424   .     S
C17    C29     1.421   .     S
C18    C30     1.420   .     S
C18    C24     1.425   .     S
C19    C37     1.423   .     S
C20    C38     1.422   .     S
C21    C39     1.421   .     S
C22    C40     1.421   .     S
C23    C41     1.419   .     S
C24    C42     1.420   .     S
C25    H45     1.013   .     S
C26    C36     1.402   .     S
C26    H43     1.014   .     S
C27    H44     1.013   .     S
C28    H48     1.013   .     S
C29    H46     1.017   .     S
C29    C33     1.402   .     S
C30    H47     1.014   .     S
C31    C37     1.402   .     S
C31    C57     1.421   .     S
C32    C38     1.406   .     S
C32    C55     1.428   .     S
C33    C56     1.420   .     S
C33    C39     1.402   .     S
C34    C60     1.421   .     S
C34    C40     1.402   .     S
C35    C58     1.428   .     S
C35    C41     1.405   .     S
C36    C59     1.420   .     S
C36    C42     1.401   .     S
C37    H53     1.013   .     S
C38    H54     1.013   .     S
C39    H52     1.013   .     S
C40    H50     1.016   .     S
C41    H51     1.013   .     S
C42    H49     1.014   .     S
C55    C73     1.421   .     S
C56    C74     1.417   .     S
C56    C79     1.417   .     S
C57    C75     1.417   .     S
C58    C76     1.421   .     S
C59    C77     1.417   .     S
C59    C82     1.417   .     S
C60    C78     1.417   .     S
C61    N150    1.355   .     S
C61    C67     1.406   .     S
C62    N148    1.354   .     S
C62    C68     1.407   .     S
C62    C85     1.412   .     S
C63    N149    1.355   .     S
C63    C69     1.408   .     S
C64    N147    1.354   .     S
C64    C70     1.406   .     S
C65    C88     1.412   .     S
C65    N145    1.354   .     S
C65    C71     1.407   .     S
C66    C72     1.408   .     S
C66    N146    1.355   .     S
C67    C73     1.408   .     S
C67    H105    1.023   .     S
C68    H103    1.023   .     S
C68    C74     1.407   .     S
C69    C75     1.409   .     S
C69    H104    1.023   .     S
C70    H108    1.023   .     S
C70    C76     1.407   .     S
C71    H106    1.023   .     S
C71    C77     1.407   .     S
C72    C78     1.408   .     S
C72    H107    1.023   .     S
C73    H111    1.022   .     S
C74    H109    1.022   .     S
C75    H110    1.023   .     S
C76    H114    1.021   .     S
C77    H112    1.022   .     S
C78    H113    1.023   .     S
C79    H92     1.023   .     S
C79    C85     1.408   .     S
C80    H93     1.022   .     S
C80    C86     1.407   .     S
C81    H91     1.021   .     S
C81    C87     1.408   .     S
C82    H95     1.023   .     S
C82    C88     1.409   .     S
C83    C89     1.407   .     S
C83    H96     1.022   .     S
C84    H94     1.022   .     S
C84    C90     1.409   .     S
C85    H98     1.019   .     S
C86    H99     1.019   .     S
C87    H97     1.020   .     S
C88    H101    1.019   .     S
C89    H102    1.019   .     S
C90    H100    1.020   .     S
C115   C130    1.415   .     S
C115   C152    1.410   .     S
C116   C153    1.410   .     S
C116   C131    1.415   .     S
C117   C151    1.410   .     S
C117   C132    1.414   .     S
C117   C123    1.415   .     S
C118   C155    1.410   .     S
C118   C127    1.415   .     S
C119   C128    1.414   .     S
C119   C156    1.409   .     S
C120   C126    1.415   .     S
C120   C154    1.410   .     S
C120   C129    1.414   .     S
C121   H133    1.023   .     S
C121   C127    1.407   .     S
C122   C128    1.408   .     S
C122   H134    1.023   .     S
C123   H135    1.023   .     S
C123   C129    1.407   .     S
C124   C130    1.408   .     S
C124   H136    1.023   .     S
C125   C131    1.408   .     S
C125   H137    1.023   .     S
C126   H138    1.023   .     S
C126   C132    1.408   .     S
C127   H139    1.024   .     S
C128   H140    1.023   .     S
C129   H141    1.024   .     S
C130   H142    1.024   .     S
C131   H143    1.023   .     S
C132   H144    1.024   .     S
N145   C151    1.353   .     S
N148   C154    1.354   .     S
C151   H157    1.022   .     S
C152   H158    1.022   .     S
C153   H159    1.022   .     S
C154   H160    1.022   .     S
C155   H161    1.022   .     S
C156   H162    1.022   .     S
