data_HCC-H2P-COF
_audit_creation_date              2016-12-13
_audit_creation_method            'Materials Studio'
_symmetry_space_group_name_H-M    'P1'
_symmetry_Int_Tables_number       1
_symmetry_cell_setting            triclinic
loop_
_symmetry_equiv_pos_as_xyz
  x,y,z
_cell_length_a                    40.3774
_cell_length_b                    32.4872
_cell_length_c                    6.7263
_cell_angle_alpha                 90.0000
_cell_angle_beta                  90.0000
_cell_angle_gamma                 90.0000
loop_
_atom_site_label
_atom_site_type_symbol
_atom_site_fract_x
_atom_site_fract_y
_atom_site_fract_z
_atom_site_U_iso_or_equiv
_atom_site_adp_type
_atom_site_occupancy
C1     C     0.24802   0.79216   0.50000   0.00000  Uiso   1.00
C2     C     0.74802   0.29216   0.50000   0.00000  Uiso   1.00
C3     C     0.75198   0.20784   0.50000   0.00000  Uiso   1.00
C4     C     0.25198   0.70784   0.50000   0.00000  Uiso   1.00
C5     C     0.75198   0.79216   0.50000   0.00000  Uiso   1.00
C6     C     0.25198   0.29216   0.50000   0.00000  Uiso   1.00
C7     C     0.24802   0.20784   0.50000   0.00000  Uiso   1.00
C8     C     0.74802   0.70784   0.50000   0.00000  Uiso   1.00
C9     C     0.28165   0.72997   0.50000   0.00000  Uiso   1.00
C10    C     0.78165   0.22997   0.50000   0.00000  Uiso   1.00
C11    C     0.71836   0.27003   0.50000   0.00000  Uiso   1.00
C12    C     0.21836   0.77003   0.50000   0.00000  Uiso   1.00
C13    C     0.71836   0.72997   0.50000   0.00000  Uiso   1.00
C14    C     0.21836   0.22997   0.50000   0.00000  Uiso   1.00
C15    C     0.28165   0.27003   0.50000   0.00000  Uiso   1.00
C16    C     0.78165   0.77003   0.50000   0.00000  Uiso   1.00
C17    C     0.19306   0.69447   0.50000   0.00000  Uiso   1.00
C18    C     0.69306   0.19447   0.50000   0.00000  Uiso   1.00
C19    C     0.80694   0.30553   0.50000   0.00000  Uiso   1.00
C20    C     0.30694   0.80553   0.50000   0.00000  Uiso   1.00
C21    C     0.80694   0.69447   0.50000   0.00000  Uiso   1.00
C22    C     0.30694   0.19447   0.50000   0.00000  Uiso   1.00
C23    C     0.19306   0.30553   0.50000   0.00000  Uiso   1.00
C24    C     0.69306   0.80553   0.50000   0.00000  Uiso   1.00
C25    C     0.27981   0.77419   0.50000   0.00000  Uiso   1.00
C26    C     0.77981   0.27419   0.50000   0.00000  Uiso   1.00
C27    C     0.72020   0.22581   0.50000   0.00000  Uiso   1.00
C28    C     0.22020   0.72581   0.50000   0.00000  Uiso   1.00
C29    C     0.72020   0.77419   0.50000   0.00000  Uiso   1.00
C30    C     0.22020   0.27419   0.50000   0.00000  Uiso   1.00
C31    C     0.27981   0.22581   0.50000   0.00000  Uiso   1.00
C32    C     0.77981   0.72581   0.50000   0.00000  Uiso   1.00
N1     N     0.33808   0.79698   0.50000   0.00000  Uiso   1.00
N2     N     0.83808   0.29698   0.50000   0.00000  Uiso   1.00
N3     N     0.66192   0.20302   0.50000   0.00000  Uiso   1.00
N4     N     0.16192   0.70302   0.50000   0.00000  Uiso   1.00
N5     N     0.66192   0.79698   0.50000   0.00000  Uiso   1.00
N6     N     0.16192   0.29698   0.50000   0.00000  Uiso   1.00
N7     N     0.33808   0.20302   0.50000   0.00000  Uiso   1.00
N8     N     0.83808   0.70302   0.50000   0.00000  Uiso   1.00
N9     N     0.05691   0.50000   0.50000   0.00000  Uiso   1.00
N10    N     0.55691   0.00000   0.50000   0.00000  Uiso   1.00
N11    N     0.94309   0.50000   0.50000   0.00000  Uiso   1.00
N12    N     0.44309   0.00000   0.50000   0.00000  Uiso   1.00
H1     H     0.03316   0.50000   0.50000   0.00000  Uiso   1.00
H2     H     0.53316   0.00000   0.50000   0.00000  Uiso   1.00
H3     H     0.96684   0.50000   0.50000   0.00000  Uiso   1.00
H4     H     0.46684   0.00000   0.50000   0.00000  Uiso   1.00
C33    C     0.07501   0.46545   0.50000   0.00000  Uiso   1.00
C34    C     0.57501   0.96545   0.50000   0.00000  Uiso   1.00
C35    C     0.92499   0.53455   0.50000   0.00000  Uiso   1.00
C36    C     0.42499   0.03455   0.50000   0.00000  Uiso   1.00
C37    C     0.92499   0.46545   0.50000   0.00000  Uiso   1.00
C38    C     0.42499   0.96545   0.50000   0.00000  Uiso   1.00
C39    C     0.07501   0.53455   0.50000   0.00000  Uiso   1.00
C40    C     0.57501   0.03455   0.50000   0.00000  Uiso   1.00
C41    C     0.10784   0.47837   0.50000   0.00000  Uiso   1.00
C42    C     0.60784   0.97837   0.50000   0.00000  Uiso   1.00
C43    C     0.89216   0.52163   0.50000   0.00000  Uiso   1.00
C44    C     0.39216   0.02163   0.50000   0.00000  Uiso   1.00
C45    C     0.89216   0.47837   0.50000   0.00000  Uiso   1.00
C46    C     0.39216   0.97837   0.50000   0.00000  Uiso   1.00
C47    C     0.10784   0.52163   0.50000   0.00000  Uiso   1.00
C48    C     0.60784   0.02163   0.50000   0.00000  Uiso   1.00
H5     H     0.12948   0.45876   0.50000   0.00000  Uiso   1.00
H6     H     0.62948   0.95876   0.50000   0.00000  Uiso   1.00
H7     H     0.87052   0.54124   0.50000   0.00000  Uiso   1.00
H8     H     0.37052   0.04124   0.50000   0.00000  Uiso   1.00
H9     H     0.87052   0.45876   0.50000   0.00000  Uiso   1.00
H10    H     0.37052   0.95876   0.50000   0.00000  Uiso   1.00
H11    H     0.12948   0.54124   0.50000   0.00000  Uiso   1.00
H12    H     0.62948   0.04124   0.50000   0.00000  Uiso   1.00
N13    N     0.50000   0.93141   0.50000   0.00000  Uiso   1.00
N14    N     0.00000   0.43141   0.50000   0.00000  Uiso   1.00
N15    N     0.50000   0.06859   0.50000   0.00000  Uiso   1.00
N16    N     0.00000   0.56859   0.50000   0.00000  Uiso   1.00
C49    C     0.52915   0.90723   0.50000   0.00000  Uiso   1.00
C50    C     0.02915   0.40723   0.50000   0.00000  Uiso   1.00
C51    C     0.47085   0.09277   0.50000   0.00000  Uiso   1.00
C52    C     0.97085   0.59277   0.50000   0.00000  Uiso   1.00
C53    C     0.47085   0.90723   0.50000   0.00000  Uiso   1.00
C54    C     0.97085   0.40723   0.50000   0.00000  Uiso   1.00
C55    C     0.52915   0.09277   0.50000   0.00000  Uiso   1.00
C56    C     0.02915   0.59277   0.50000   0.00000  Uiso   1.00
C57    C     0.51672   0.86451   0.50000   0.00000  Uiso   1.00
C58    C     0.01672   0.36451   0.50000   0.00000  Uiso   1.00
C59    C     0.48328   0.13549   0.50000   0.00000  Uiso   1.00
C60    C     0.98328   0.63549   0.50000   0.00000  Uiso   1.00
C61    C     0.48328   0.86451   0.50000   0.00000  Uiso   1.00
C62    C     0.98328   0.36451   0.50000   0.00000  Uiso   1.00
C63    C     0.51672   0.13549   0.50000   0.00000  Uiso   1.00
C64    C     0.01672   0.63549   0.50000   0.00000  Uiso   1.00
H13    H     0.53190   0.83708   0.50000   0.00000  Uiso   1.00
H14    H     0.03190   0.33708   0.50000   0.00000  Uiso   1.00
H15    H     0.46811   0.16292   0.50000   0.00000  Uiso   1.00
H16    H     0.96811   0.66292   0.50000   0.00000  Uiso   1.00
H17    H     0.46811   0.83708   0.50000   0.00000  Uiso   1.00
H18    H     0.96811   0.33708   0.50000   0.00000  Uiso   1.00
H19    H     0.53190   0.16292   0.50000   0.00000  Uiso   1.00
H20    H     0.03190   0.66292   0.50000   0.00000  Uiso   1.00
C65    C     0.06182   0.42084   0.50000   0.00000  Uiso   1.00
C66    C     0.56182   0.92084   0.50000   0.00000  Uiso   1.00
C67    C     0.93818   0.57916   0.50000   0.00000  Uiso   1.00
C68    C     0.43818   0.07916   0.50000   0.00000  Uiso   1.00
C69    C     0.93818   0.42084   0.50000   0.00000  Uiso   1.00
C70    C     0.43818   0.92084   0.50000   0.00000  Uiso   1.00
C71    C     0.06182   0.57916   0.50000   0.00000  Uiso   1.00
C72    C     0.56182   0.07916   0.50000   0.00000  Uiso   1.00
C73    C     0.08762   0.38877   0.50000   0.00000  Uiso   1.00
C74    C     0.58762   0.88877   0.50000   0.00000  Uiso   1.00
C75    C     0.91238   0.61123   0.50000   0.00000  Uiso   1.00
C76    C     0.41238   0.11123   0.50000   0.00000  Uiso   1.00
C77    C     0.91238   0.38877   0.50000   0.00000  Uiso   1.00
C78    C     0.41238   0.88877   0.50000   0.00000  Uiso   1.00
C79    C     0.08762   0.61123   0.50000   0.00000  Uiso   1.00
C80    C     0.58762   0.11123   0.50000   0.00000  Uiso   1.00
C81    C     0.60000   0.87355   0.68027   0.00000  Uiso   1.00
C82    C     0.10000   0.37355   0.68027   0.00000  Uiso   1.00
C83    C     0.40000   0.12645   0.68027   0.00000  Uiso   1.00
C84    C     0.90000   0.62645   0.68027   0.00000  Uiso   1.00
C85    C     0.40000   0.87355   0.31972   0.00000  Uiso   1.00
C86    C     0.90000   0.37355   0.31972   0.00000  Uiso   1.00
C87    C     0.60000   0.12645   0.31972   0.00000  Uiso   1.00
C88    C     0.10000   0.62645   0.31972   0.00000  Uiso   1.00
C89    C     0.40000   0.12645   0.31972   0.00000  Uiso   1.00
C90    C     0.90000   0.62645   0.31972   0.00000  Uiso   1.00
C91    C     0.60000   0.87355   0.31972   0.00000  Uiso   1.00
C92    C     0.10000   0.37355   0.31972   0.00000  Uiso   1.00
C93    C     0.60000   0.12645   0.68027   0.00000  Uiso   1.00
C94    C     0.10000   0.62645   0.68027   0.00000  Uiso   1.00
C95    C     0.40000   0.87355   0.68027   0.00000  Uiso   1.00
C96    C     0.90000   0.37355   0.68027   0.00000  Uiso   1.00
H21    H     0.09054   0.38519   0.81992   0.00000  Uiso   1.00
H22    H     0.59054   0.88519   0.81992   0.00000  Uiso   1.00
H23    H     0.90946   0.61481   0.81992   0.00000  Uiso   1.00
H24    H     0.40946   0.11481   0.81992   0.00000  Uiso   1.00
H25    H     0.90946   0.38519   0.18008   0.00000  Uiso   1.00
H26    H     0.40946   0.88519   0.18008   0.00000  Uiso   1.00
H27    H     0.09054   0.61481   0.18008   0.00000  Uiso   1.00
H28    H     0.59054   0.11481   0.18008   0.00000  Uiso   1.00
H29    H     0.90946   0.61481   0.18008   0.00000  Uiso   1.00
H30    H     0.40946   0.11481   0.18008   0.00000  Uiso   1.00
H31    H     0.09054   0.38519   0.18008   0.00000  Uiso   1.00
H32    H     0.59054   0.88519   0.18008   0.00000  Uiso   1.00
H33    H     0.09054   0.61481   0.81992   0.00000  Uiso   1.00
H34    H     0.59054   0.11481   0.81992   0.00000  Uiso   1.00
H35    H     0.90946   0.38519   0.81992   0.00000  Uiso   1.00
H36    H     0.40946   0.88519   0.81992   0.00000  Uiso   1.00
C97    C     0.12462   0.34323   0.67993   0.00000  Uiso   1.00
C98    C     0.62462   0.84323   0.67993   0.00000  Uiso   1.00
C99    C     0.87538   0.65677   0.67993   0.00000  Uiso   1.00
C100   C     0.37538   0.15677   0.67993   0.00000  Uiso   1.00
C101   C     0.87538   0.34323   0.32006   0.00000  Uiso   1.00
C102   C     0.37538   0.84323   0.32006   0.00000  Uiso   1.00
C103   C     0.12462   0.65677   0.32006   0.00000  Uiso   1.00
C104   C     0.62462   0.15677   0.32006   0.00000  Uiso   1.00
C105   C     0.87538   0.65677   0.32006   0.00000  Uiso   1.00
C106   C     0.37538   0.15677   0.32006   0.00000  Uiso   1.00
C107   C     0.12462   0.34323   0.32006   0.00000  Uiso   1.00
C108   C     0.62462   0.84323   0.32006   0.00000  Uiso   1.00
C109   C     0.12462   0.65677   0.67993   0.00000  Uiso   1.00
C110   C     0.62462   0.15677   0.67993   0.00000  Uiso   1.00
C111   C     0.87538   0.34323   0.67993   0.00000  Uiso   1.00
C112   C     0.37538   0.84323   0.67993   0.00000  Uiso   1.00
H37    H     0.13420   0.33128   0.81845   0.00000  Uiso   1.00
H38    H     0.63420   0.83128   0.81845   0.00000  Uiso   1.00
H39    H     0.86580   0.66872   0.81845   0.00000  Uiso   1.00
H40    H     0.36580   0.16872   0.81845   0.00000  Uiso   1.00
H41    H     0.86580   0.33128   0.18154   0.00000  Uiso   1.00
H42    H     0.36580   0.83128   0.18154   0.00000  Uiso   1.00
H43    H     0.13420   0.66872   0.18154   0.00000  Uiso   1.00
H44    H     0.63420   0.16872   0.18154   0.00000  Uiso   1.00
H45    H     0.86580   0.66872   0.18154   0.00000  Uiso   1.00
H46    H     0.36580   0.16872   0.18154   0.00000  Uiso   1.00
H47    H     0.13420   0.33128   0.18154   0.00000  Uiso   1.00
H48    H     0.63420   0.83128   0.18154   0.00000  Uiso   1.00
H49    H     0.13420   0.66872   0.81845   0.00000  Uiso   1.00
H50    H     0.63420   0.16872   0.81845   0.00000  Uiso   1.00
H51    H     0.86580   0.33128   0.81845   0.00000  Uiso   1.00
H52    H     0.36580   0.83128   0.81845   0.00000  Uiso   1.00
C113   C     0.13705   0.32822   0.50000   0.00000  Uiso   1.00
C114   C     0.63705   0.82822   0.50000   0.00000  Uiso   1.00
C115   C     0.86295   0.67178   0.50000   0.00000  Uiso   1.00
C116   C     0.36295   0.17178   0.50000   0.00000  Uiso   1.00
C117   C     0.86295   0.32822   0.50000   0.00000  Uiso   1.00
C118   C     0.36295   0.82822   0.50000   0.00000  Uiso   1.00
C119   C     0.13705   0.67178   0.50000   0.00000  Uiso   1.00
C120   C     0.63705   0.17178   0.50000   0.00000  Uiso   1.00
H53    H     0.24553   0.82539   0.50000   0.00000  Uiso   1.00
O1     O     0.30916   0.70303   0.50000   0.00000  Uiso   1.00
H54    H     0.20004   0.66215   0.50000   0.00000  Uiso   1.00
C121   C     0.65847   0.71507   0.50000   0.00000  Uiso   1.00
C122   C     0.62921   0.72258   0.50000   0.00000  Uiso   1.00
H55    H     0.60367   0.72950   0.50000   0.00000  Uiso   1.00
H56    H     0.74553   0.32539   0.50000   0.00000  Uiso   1.00
O2     O     0.80917   0.20303   0.50000   0.00000  Uiso   1.00
H57    H     0.70004   0.16215   0.50000   0.00000  Uiso   1.00
C123   C     0.15847   0.21507   0.50000   0.00000  Uiso   1.00
C124   C     0.12921   0.22258   0.50000   0.00000  Uiso   1.00
H58    H     0.10367   0.22950   0.50000   0.00000  Uiso   1.00
H59    H     0.75447   0.17461   0.50000   0.00000  Uiso   1.00
O3     O     0.69084   0.29697   0.50000   0.00000  Uiso   1.00
H60    H     0.79996   0.33785   0.50000   0.00000  Uiso   1.00
C125   C     0.34153   0.28493   0.50000   0.00000  Uiso   1.00
C126   C     0.37079   0.27742   0.50000   0.00000  Uiso   1.00
H61    H     0.39633   0.27050   0.50000   0.00000  Uiso   1.00
H62    H     0.25447   0.67461   0.50000   0.00000  Uiso   1.00
O4     O     0.19084   0.79697   0.50000   0.00000  Uiso   1.00
H63    H     0.29996   0.83785   0.50000   0.00000  Uiso   1.00
C127   C     0.84153   0.78493   0.50000   0.00000  Uiso   1.00
C128   C     0.87079   0.77742   0.50000   0.00000  Uiso   1.00
H64    H     0.89633   0.77050   0.50000   0.00000  Uiso   1.00
H65    H     0.75447   0.82539   0.50000   0.00000  Uiso   1.00
O5     O     0.69084   0.70303   0.50000   0.00000  Uiso   1.00
H66    H     0.79996   0.66215   0.50000   0.00000  Uiso   1.00
C129   C     0.34153   0.71507   0.50000   0.00000  Uiso   1.00
C130   C     0.37079   0.72258   0.50000   0.00000  Uiso   1.00
H67    H     0.39633   0.72950   0.50000   0.00000  Uiso   1.00
H68    H     0.25447   0.32539   0.50000   0.00000  Uiso   1.00
O6     O     0.19084   0.20303   0.50000   0.00000  Uiso   1.00
H69    H     0.29996   0.16215   0.50000   0.00000  Uiso   1.00
C131   C     0.84153   0.21507   0.50000   0.00000  Uiso   1.00
C132   C     0.87079   0.22258   0.50000   0.00000  Uiso   1.00
H70    H     0.89633   0.22950   0.50000   0.00000  Uiso   1.00
H71    H     0.24553   0.17461   0.50000   0.00000  Uiso   1.00
O7     O     0.30916   0.29697   0.50000   0.00000  Uiso   1.00
H72    H     0.20004   0.33785   0.50000   0.00000  Uiso   1.00
C133   C     0.65847   0.28493   0.50000   0.00000  Uiso   1.00
C134   C     0.62921   0.27742   0.50000   0.00000  Uiso   1.00
H73    H     0.60367   0.27050   0.50000   0.00000  Uiso   1.00
H74    H     0.74553   0.67461   0.50000   0.00000  Uiso   1.00
O8     O     0.80917   0.79697   0.50000   0.00000  Uiso   1.00
H75    H     0.70004   0.83785   0.50000   0.00000  Uiso   1.00
C135   C     0.15847   0.78493   0.50000   0.00000  Uiso   1.00
C136   C     0.12921   0.77742   0.50000   0.00000  Uiso   1.00
H76    H     0.10367   0.77050   0.50000   0.00000  Uiso   1.00
H77    H     0.50000   0.96106   0.50000   0.00000  Uiso   1.00
H78    H     0.00000   0.46106   0.50000   0.00000  Uiso   1.00
H79    H     0.50000   0.03894   0.50000   0.00000  Uiso   1.00
H80    H     0.00000   0.53894   0.50000   0.00000  Uiso   1.00
loop_
_geom_bond_atom_site_label_1
_geom_bond_atom_site_label_2
_geom_bond_distance
_geom_bond_site_symmetry_2
_ccdc_geom_bond_type
C1     C12     1.397   .     S
C1     C25     1.410   .     S
C1     H53     1.084   .     S
C2     C26     1.410   .     S
C2     H56     1.084   .     S
C2     C11     1.397   .     S
C3     H59     1.084   .     S
C3     C10     1.397   .     S
C3     C27     1.410   .     S
C4     H62     1.084   .     S
C4     C28     1.410   .     S
C4     C9      1.397   .     S
C5     C16     1.397   .     S
C5     C29     1.410   .     S
C5     H65     1.084   .     S
C6     C30     1.410   .     S
C6     H68     1.084   .     S
C6     C15     1.397   .     S
C7     H71     1.084   .     S
C7     C14     1.397   .     S
C7     C31     1.410   .     S
C8     H74     1.084   .     S
C8     C32     1.410   .     S
C8     C13     1.397   .     S
C9     C25     1.438   .     S
C9     O1      1.414   .     S
C10    C26     1.438   .     S
C10    O2      1.414   .     S
C11    C27     1.438   .     S
C11    O3      1.414   .     S
C12    O4      1.414   .     S
C12    C28     1.438   .     S
C13    C29     1.438   .     S
C13    O5      1.414   .     S
C14    C30     1.438   .     S
C14    O6      1.414   .     S
C15    C31     1.438   .     S
C15    O7      1.414   .     S
C16    O8      1.414   .     S
C16    C32     1.438   .     S
C17    H54     1.087   .     S
C17    N4      1.288   .     S
C17    C28     1.496   .     S
C18    N3      1.288   .     S
C18    C27     1.496   .     S
C18    H57     1.087   .     S
C19    C26     1.496   .     S
C19    N2      1.288   .     S
C19    H60     1.087   .     S
C20    C25     1.496   .     S
C20    N1      1.288   .     S
C20    H63     1.087   .     S
C21    H66     1.087   .     S
C21    N8      1.288   .     S
C21    C32     1.496   .     S
C22    N7      1.288   .     S
C22    C31     1.496   .     S
C22    H69     1.087   .     S
C23    N6      1.288   .     S
C23    C30     1.496   .     S
C23    H72     1.087   .     S
C24    N5      1.288   .     S
C24    C29     1.496   .     S
C24    H75     1.087   .     S
N1     C118    1.428   .     S
N2     C117    1.428   .     S
N3     C120    1.428   .     S
N4     C119    1.428   .     S
N5     C114    1.428   .     S
N6     C113    1.428   .     S
N7     C116    1.428   .     S
N8     C115    1.428   .     S
N9     C39     1.339   .     S
N9     H1      0.959   .     S
N9     C33     1.339   .     S
N10    H2      0.959   .     S
N10    C40     1.339   .     S
N11    C35     1.339   .     S
N11    H3      0.959   .     S
N11    C37     1.339   .     S
N12    H4      0.959   .     S
N12    C36     1.339   .     S
C33    C41     1.390   .     S
C33    C65     1.544   .     S
C34    C42     1.390   .     S
C34    C66     1.544   .     S
C35    C43     1.390   .     S
C35    C67     1.544   .     S
C36    C44     1.390   .     S
C36    C68     1.544   .     S
C37    C45     1.390   .     S
C37    C69     1.544   .     S
C38    C46     1.390   .     S
C38    C70     1.544   .     S
C39    C47     1.390   .     S
C39    C71     1.544   .     S
C40    C48     1.390   .     S
C40    C72     1.544   .     S
C41    H5      1.081   .     S
C41    C47     1.405   .     S
C42    H6      1.081   .     S
C43    H7      1.081   .     S
C43    C45     1.405   .     S
C44    H8      1.081   .     S
C45    H9      1.081   .     S
C46    H10     1.081   .     S
C47    H11     1.081   .     S
C48    H12     1.081   .     S
N13    H77     0.963   .     S
N13    C53     1.415   .     S
N13    C49     1.415   .     S
N14    C50     1.415   .     S
N14    H78     0.963   .     S
N15    C51     1.415   .     S
N15    C55     1.415   .     S
N15    H79     0.963   .     S
N16    C56     1.415   .     S
N16    H80     0.963   .     S
C49    C66     1.391   .     S
C49    C57     1.476   .     S
C50    C65     1.391   .     S
C50    C58     1.476   .     S
C51    C68     1.391   .     S
C51    C59     1.476   .     S
C52    C67     1.391   .     S
C52    C60     1.476   .     S
C53    C70     1.391   .     S
C53    C61     1.476   .     S
C54    C69     1.391   .     S
C54    C62     1.476   .     S
C55    C72     1.391   .     S
C55    C63     1.476   .     S
C56    C71     1.391   .     S
C56    C64     1.476   .     S
C57    C61     1.350   .     S
C57    H13     1.082   .     S
C58    H14     1.082   .     S
C59    C63     1.350   .     S
C59    H15     1.082   .     S
C60    H16     1.082   .     S
C61    H17     1.082   .     S
C62    H18     1.082   .     S
C63    H19     1.082   .     S
C64    H20     1.082   .     S
C65    C73     1.473   .     S
C66    C74     1.473   .     S
C67    C75     1.473   .     S
C68    C76     1.473   .     S
C69    C77     1.473   .     S
C70    C78     1.473   .     S
C71    C79     1.473   .     S
C72    C80     1.473   .     S
C73    C92     1.402   .     S
C73    C82     1.402   .     S
C74    C91     1.402   .     S
C74    C81     1.402   .     S
C75    C90     1.402   .     S
C75    C84     1.402   .     S
C76    C89     1.402   .     S
C76    C83     1.402   .     S
C77    C86     1.402   .     S
C77    C96     1.402   .     S
C78    C85     1.402   .     S
C78    C95     1.402   .     S
C79    C88     1.402   .     S
C79    C94     1.402   .     S
C80    C87     1.402   .     S
C80    C93     1.402   .     S
C81    C98     1.399   .     S
C81    H22     1.082   .     S
C82    C97     1.399   .     S
C82    H21     1.082   .     S
C83    C100    1.399   .     S
C83    H24     1.082   .     S
C84    C99     1.399   .     S
C84    H23     1.082   .     S
C85    C102    1.399   .     S
C85    H26     1.082   .     S
C86    C101    1.399   .     S
C86    H25     1.082   .     S
C87    C104    1.399   .     S
C87    H28     1.082   .     S
C88    C103    1.399   .     S
C88    H27     1.082   .     S
C89    C106    1.399   .     S
C89    H30     1.082   .     S
C90    C105    1.399   .     S
C90    H29     1.082   .     S
C91    C108    1.399   .     S
C91    H32     1.082   .     S
C92    C107    1.399   .     S
C92    H31     1.082   .     S
C93    C110    1.399   .     S
C93    H34     1.082   .     S
C94    C109    1.399   .     S
C94    H33     1.082   .     S
C95    C112    1.399   .     S
C95    H36     1.082   .     S
C96    C111    1.399   .     S
C96    H35     1.082   .     S
C97    C113    1.398   .     S
C97    H37     1.081   .     S
C98    C114    1.398   .     S
C98    H38     1.081   .     S
C99    C115    1.398   .     S
C99    H39     1.081   .     S
C100   C116    1.398   .     S
C100   H40     1.081   .     S
C101   C117    1.398   .     S
C101   H41     1.081   .     S
C102   C118    1.398   .     S
C102   H42     1.081   .     S
C103   C119    1.398   .     S
C103   H43     1.081   .     S
C104   C120    1.398   .     S
C104   H44     1.081   .     S
C105   C115    1.398   .     S
C105   H45     1.081   .     S
C106   C116    1.398   .     S
C106   H46     1.081   .     S
C107   C113    1.398   .     S
C107   H47     1.081   .     S
C108   C114    1.398   .     S
C108   H48     1.081   .     S
C109   C119    1.398   .     S
C109   H49     1.081   .     S
C110   C120    1.398   .     S
C110   H50     1.081   .     S
C111   C117    1.398   .     S
C111   H51     1.081   .     S
C112   C118    1.398   .     S
C112   H52     1.081   .     S
O1     C129    1.364   .     S
C121   C122    1.206   .     S
C121   O5      1.364   .     S
C122   H55     1.055   .     S
O2     C131    1.364   .     S
C123   O6      1.364   .     S
C123   C124    1.206   .     S
C124   H58     1.055   .     S
O3     C133    1.364   .     S
C125   O7      1.364   .     S
C125   C126    1.206   .     S
C126   H61     1.055   .     S
O4     C135    1.364   .     S
C127   C128    1.206   .     S
C127   O8      1.364   .     S
C128   H64     1.055   .     S
C129   C130    1.206   .     S
C130   H67     1.055   .     S
C131   C132    1.206   .     S
C132   H70     1.055   .     S
C133   C134    1.206   .     S
C134   H73     1.055   .     S
C135   C136    1.206   .     S
C136   H76     1.055   .     S
