data_HP-COF-2
_audit_creation_date              2016-12-13
_audit_creation_method            'Materials Studio'
_symmetry_space_group_name_H-M    'P1'
_symmetry_Int_Tables_number       1
_symmetry_cell_setting            triclinic
loop_
_symmetry_equiv_pos_as_xyz
  x,y,z
_cell_length_a                    39.8900
_cell_length_b                    39.8900
_cell_length_c                    3.4700
_cell_angle_alpha                 90.0000
_cell_angle_beta                  90.0000
_cell_angle_gamma                 120.0000
loop_
_atom_site_label
_atom_site_type_symbol
_atom_site_fract_x
_atom_site_fract_y
_atom_site_fract_z
_atom_site_U_iso_or_equiv
_atom_site_adp_type
_atom_site_occupancy
H1     H     0.72600   0.84920   0.00000   0.00000  Uiso   1.00
C1     C     0.75564   0.85506   0.00000   0.00000  Uiso   1.00
N1     N     0.78383   0.89053   0.00000   0.00000  Uiso   1.00
N2     N     0.77644   0.92133   0.00000   0.00000  Uiso   1.00
H2     H     0.83428   0.96262   0.00000   0.00000  Uiso   1.00
C2     C     0.80464   0.95679   0.00000   0.00000  Uiso   1.00
C3     C     0.79719   0.98949   0.00000   0.00000  Uiso   1.00
C4     C     0.75929   0.98333   0.00000   0.00000  Uiso   1.00
H3     H     0.73468   0.95418   0.00000   0.00000  Uiso   1.00
C5     C     0.64265   0.99613   0.00000   0.00000  Uiso   1.00
H4     H     0.61594   0.93382   0.00000   0.00000  Uiso   1.00
C6     C     0.61122   0.95830   0.00000   0.00000  Uiso   1.00
C7     C     0.57340   0.95185   0.00000   0.00000  Uiso   1.00
H5     H     0.54941   0.92238   0.00000   0.00000  Uiso   1.00
C8     C     0.56663   0.98315   0.00000   0.00000  Uiso   1.00
C9     C     0.52644   0.97558   0.00000   0.00000  Uiso   1.00
H6     H     0.50272   0.94593   0.00000   0.00000  Uiso   1.00
N3     N     0.48089   0.99626   0.00000   0.00000  Uiso   1.00
H7     H     0.40595   0.95417   0.00000   0.00000  Uiso   1.00
C10    C     0.40163   0.97888   0.00000   0.00000  Uiso   1.00
C11    C     0.36383   0.97249   0.00000   0.00000  Uiso   1.00
H8     H     0.33968   0.94310   0.00000   0.00000  Uiso   1.00
C12    C     0.31847   0.99726   0.00000   0.00000  Uiso   1.00
C13    C     0.28589   0.99174   0.00000   0.00000  Uiso   1.00
C14    C     0.24703   0.98520   0.00000   0.00000  Uiso   1.00
H9     H     0.22074   0.92315   0.00000   0.00000  Uiso   1.00
C15    C     0.21560   0.94739   0.00000   0.00000  Uiso   1.00
C16    C     0.17760   0.94075   0.00000   0.00000  Uiso   1.00
C17    C     0.17142   0.97250   0.00000   0.00000  Uiso   1.00
H10    H     0.14220   0.96774   0.00000   0.00000  Uiso   1.00
H11    H     0.15080   0.87680   0.00000   0.00000  Uiso   1.00
C18    C     0.14494   0.90058   0.00000   0.00000  Uiso   1.00
N4     N     0.10947   0.89330   0.00000   0.00000  Uiso   1.00
N5     N     0.07867   0.85511   0.00000   0.00000  Uiso   1.00
H12    H     0.03738   0.87166   0.00000   0.00000  Uiso   1.00
C19    C     0.04321   0.84785   0.00000   0.00000  Uiso   1.00
C20    C     0.01051   0.80770   0.00000   0.00000  Uiso   1.00
C21    C     0.01667   0.77596   0.00000   0.00000  Uiso   1.00
H13    H     0.04582   0.78050   0.00000   0.00000  Uiso   1.00
C22    C     0.00387   0.64652   0.00000   0.00000  Uiso   1.00
H14    H     0.06618   0.68212   0.00000   0.00000  Uiso   1.00
C23    C     0.04170   0.65292   0.00000   0.00000  Uiso   1.00
C24    C     0.04815   0.62155   0.00000   0.00000  Uiso   1.00
H15    H     0.07762   0.62703   0.00000   0.00000  Uiso   1.00
C25    C     0.01685   0.58348   0.00000   0.00000  Uiso   1.00
C26    C     0.02442   0.55086   0.00000   0.00000  Uiso   1.00
H16    H     0.05407   0.55679   0.00000   0.00000  Uiso   1.00
N6     N     0.00374   0.48463   0.00000   0.00000  Uiso   1.00
H17    H     0.04583   0.45178   0.00000   0.00000  Uiso   1.00
C27    C     0.02112   0.42275   0.00000   0.00000  Uiso   1.00
C28    C     0.02751   0.39134   0.00000   0.00000  Uiso   1.00
H18    H     0.05690   0.39658   0.00000   0.00000  Uiso   1.00
C29    C     0.00274   0.32121   0.00000   0.00000  Uiso   1.00
C30    C     0.00826   0.29415   0.00000   0.00000  Uiso   1.00
C31    C     0.01480   0.26183   0.00000   0.00000  Uiso   1.00
H19    H     0.07685   0.29759   0.00000   0.00000  Uiso   1.00
C32    C     0.05261   0.26821   0.00000   0.00000  Uiso   1.00
C33    C     0.05925   0.23685   0.00000   0.00000  Uiso   1.00
C34    C     0.02750   0.19892   0.00000   0.00000  Uiso   1.00
H20    H     0.03226   0.17446   0.00000   0.00000  Uiso   1.00
H21    H     0.12320   0.27400   0.00000   0.00000  Uiso   1.00
C35    C     0.09942   0.24436   0.00000   0.00000  Uiso   1.00
N7     N     0.10670   0.21617   0.00000   0.00000  Uiso   1.00
N8     N     0.14489   0.22356   0.00000   0.00000  Uiso   1.00
H22    H     0.12834   0.16572   0.00000   0.00000  Uiso   1.00
C36    C     0.15215   0.19536   0.00000   0.00000  Uiso   1.00
C37    C     0.19230   0.20281   0.00000   0.00000  Uiso   1.00
C38    C     0.22404   0.24071   0.00000   0.00000  Uiso   1.00
H23    H     0.21950   0.26532   0.00000   0.00000  Uiso   1.00
C39    C     0.35348   0.35735   0.00000   0.00000  Uiso   1.00
H24    H     0.31788   0.38406   0.00000   0.00000  Uiso   1.00
C40    C     0.34708   0.38878   0.00000   0.00000  Uiso   1.00
C41    C     0.37845   0.42660   0.00000   0.00000  Uiso   1.00
H25    H     0.37297   0.45059   0.00000   0.00000  Uiso   1.00
C42    C     0.41652   0.43337   0.00000   0.00000  Uiso   1.00
C43    C     0.44914   0.47356   0.00000   0.00000  Uiso   1.00
H26    H     0.44321   0.49728   0.00000   0.00000  Uiso   1.00
N9     N     0.51537   0.51911   0.00000   0.00000  Uiso   1.00
H27    H     0.54822   0.59405   0.00000   0.00000  Uiso   1.00
C44    C     0.57725   0.59837   0.00000   0.00000  Uiso   1.00
C45    C     0.60866   0.63617   0.00000   0.00000  Uiso   1.00
H28    H     0.60342   0.66032   0.00000   0.00000  Uiso   1.00
C46    C     0.67879   0.68153   0.00000   0.00000  Uiso   1.00
C47    C     0.70585   0.71411   0.00000   0.00000  Uiso   1.00
C48    C     0.73817   0.75297   0.00000   0.00000  Uiso   1.00
H29    H     0.70241   0.77926   0.00000   0.00000  Uiso   1.00
C49    C     0.73179   0.78440   0.00000   0.00000  Uiso   1.00
C50    C     0.76315   0.82240   0.00000   0.00000  Uiso   1.00
C51    C     0.80108   0.82858   0.00000   0.00000  Uiso   1.00
H30    H     0.82554   0.85780   0.00000   0.00000  Uiso   1.00
H31    H     0.27400   0.15080   0.00000   0.00000  Uiso   1.00
C52    C     0.24436   0.14494   0.00000   0.00000  Uiso   1.00
N10    N     0.21617   0.10947   0.00000   0.00000  Uiso   1.00
N11    N     0.22356   0.07867   0.00000   0.00000  Uiso   1.00
H32    H     0.16572   0.03738   0.00000   0.00000  Uiso   1.00
C53    C     0.19536   0.04321   0.00000   0.00000  Uiso   1.00
C54    C     0.20281   0.01051   0.00000   0.00000  Uiso   1.00
C55    C     0.24071   0.01667   0.00000   0.00000  Uiso   1.00
H33    H     0.26532   0.04582   0.00000   0.00000  Uiso   1.00
C56    C     0.35735   0.00387   0.00000   0.00000  Uiso   1.00
H34    H     0.38406   0.06618   0.00000   0.00000  Uiso   1.00
C57    C     0.38878   0.04170   0.00000   0.00000  Uiso   1.00
C58    C     0.42660   0.04815   0.00000   0.00000  Uiso   1.00
H35    H     0.45059   0.07762   0.00000   0.00000  Uiso   1.00
C59    C     0.43337   0.01685   0.00000   0.00000  Uiso   1.00
C60    C     0.47356   0.02442   0.00000   0.00000  Uiso   1.00
H36    H     0.49728   0.05407   0.00000   0.00000  Uiso   1.00
N12    N     0.51911   0.00374   0.00000   0.00000  Uiso   1.00
H37    H     0.59405   0.04583   0.00000   0.00000  Uiso   1.00
C61    C     0.59837   0.02112   0.00000   0.00000  Uiso   1.00
C62    C     0.63617   0.02751   0.00000   0.00000  Uiso   1.00
H38    H     0.66032   0.05690   0.00000   0.00000  Uiso   1.00
C63    C     0.68153   0.00274   0.00000   0.00000  Uiso   1.00
C64    C     0.71411   0.00826   0.00000   0.00000  Uiso   1.00
C65    C     0.75297   0.01480   0.00000   0.00000  Uiso   1.00
H39    H     0.77926   0.07685   0.00000   0.00000  Uiso   1.00
C66    C     0.78440   0.05261   0.00000   0.00000  Uiso   1.00
C67    C     0.82240   0.05925   0.00000   0.00000  Uiso   1.00
C68    C     0.82858   0.02750   0.00000   0.00000  Uiso   1.00
H40    H     0.85780   0.03226   0.00000   0.00000  Uiso   1.00
H41    H     0.84920   0.12320   0.00000   0.00000  Uiso   1.00
C69    C     0.85506   0.09942   0.00000   0.00000  Uiso   1.00
N13    N     0.89053   0.10670   0.00000   0.00000  Uiso   1.00
N14    N     0.92133   0.14489   0.00000   0.00000  Uiso   1.00
H42    H     0.96262   0.12834   0.00000   0.00000  Uiso   1.00
C70    C     0.95679   0.15215   0.00000   0.00000  Uiso   1.00
C71    C     0.98949   0.19230   0.00000   0.00000  Uiso   1.00
C72    C     0.98333   0.22404   0.00000   0.00000  Uiso   1.00
H43    H     0.95418   0.21950   0.00000   0.00000  Uiso   1.00
C73    C     0.99613   0.35348   0.00000   0.00000  Uiso   1.00
H44    H     0.93382   0.31788   0.00000   0.00000  Uiso   1.00
C74    C     0.95830   0.34708   0.00000   0.00000  Uiso   1.00
C75    C     0.95185   0.37845   0.00000   0.00000  Uiso   1.00
H45    H     0.92238   0.37297   0.00000   0.00000  Uiso   1.00
C76    C     0.98315   0.41652   0.00000   0.00000  Uiso   1.00
C77    C     0.97558   0.44914   0.00000   0.00000  Uiso   1.00
H46    H     0.94593   0.44321   0.00000   0.00000  Uiso   1.00
N15    N     0.99626   0.51537   0.00000   0.00000  Uiso   1.00
H47    H     0.95417   0.54822   0.00000   0.00000  Uiso   1.00
C78    C     0.97888   0.57725   0.00000   0.00000  Uiso   1.00
C79    C     0.97249   0.60866   0.00000   0.00000  Uiso   1.00
H48    H     0.94310   0.60342   0.00000   0.00000  Uiso   1.00
C80    C     0.99726   0.67879   0.00000   0.00000  Uiso   1.00
C81    C     0.99174   0.70585   0.00000   0.00000  Uiso   1.00
C82    C     0.98520   0.73817   0.00000   0.00000  Uiso   1.00
H49    H     0.92315   0.70241   0.00000   0.00000  Uiso   1.00
C83    C     0.94739   0.73179   0.00000   0.00000  Uiso   1.00
C84    C     0.94075   0.76315   0.00000   0.00000  Uiso   1.00
C85    C     0.97250   0.80108   0.00000   0.00000  Uiso   1.00
H50    H     0.96774   0.82554   0.00000   0.00000  Uiso   1.00
H51    H     0.87680   0.72600   0.00000   0.00000  Uiso   1.00
C86    C     0.90058   0.75564   0.00000   0.00000  Uiso   1.00
N16    N     0.89330   0.78383   0.00000   0.00000  Uiso   1.00
N17    N     0.85511   0.77644   0.00000   0.00000  Uiso   1.00
H52    H     0.87166   0.83428   0.00000   0.00000  Uiso   1.00
C87    C     0.84785   0.80464   0.00000   0.00000  Uiso   1.00
C88    C     0.80770   0.79719   0.00000   0.00000  Uiso   1.00
C89    C     0.77596   0.75929   0.00000   0.00000  Uiso   1.00
H53    H     0.78050   0.73468   0.00000   0.00000  Uiso   1.00
C90    C     0.64652   0.64265   0.00000   0.00000  Uiso   1.00
H54    H     0.68212   0.61594   0.00000   0.00000  Uiso   1.00
C91    C     0.65292   0.61122   0.00000   0.00000  Uiso   1.00
C92    C     0.62155   0.57340   0.00000   0.00000  Uiso   1.00
H55    H     0.62703   0.54941   0.00000   0.00000  Uiso   1.00
C93    C     0.58348   0.56663   0.00000   0.00000  Uiso   1.00
C94    C     0.55086   0.52644   0.00000   0.00000  Uiso   1.00
H56    H     0.55679   0.50272   0.00000   0.00000  Uiso   1.00
N18    N     0.48463   0.48089   0.00000   0.00000  Uiso   1.00
H57    H     0.45178   0.40595   0.00000   0.00000  Uiso   1.00
C95    C     0.42275   0.40163   0.00000   0.00000  Uiso   1.00
C96    C     0.39134   0.36383   0.00000   0.00000  Uiso   1.00
H58    H     0.39658   0.33968   0.00000   0.00000  Uiso   1.00
C97    C     0.32121   0.31847   0.00000   0.00000  Uiso   1.00
C98    C     0.29415   0.28589   0.00000   0.00000  Uiso   1.00
C99    C     0.26183   0.24703   0.00000   0.00000  Uiso   1.00
H59    H     0.29759   0.22074   0.00000   0.00000  Uiso   1.00
C100   C     0.26821   0.21560   0.00000   0.00000  Uiso   1.00
C101   C     0.23685   0.17760   0.00000   0.00000  Uiso   1.00
C102   C     0.19892   0.17142   0.00000   0.00000  Uiso   1.00
H60    H     0.17446   0.14220   0.00000   0.00000  Uiso   1.00
loop_
_geom_bond_atom_site_label_1
_geom_bond_atom_site_label_2
_geom_bond_distance
_geom_bond_site_symmetry_2
_ccdc_geom_bond_type
H1     C1      1.085   .     S
C1     C50     1.476   .     S
C1     N1      1.294   .     S
N1     N2      1.399   .     S
N2     C2      1.294   .     S
H2     C2      1.085   .     S
C2     C3      1.476   .     S
C3     C4      1.405   .     S
C4     H3      1.084   .     S
C5     C6      1.399   .     S
H4     C6      1.083   .     S
C6     C7      1.398   .     S
C7     C8      1.403   .     S
C7     H5      1.083   .     S
C8     C9      1.476   .     S
C9     H6      1.084   .     S
H7     C10     1.082   .     S
C10    C11     1.398   .     S
C11    H8      1.083   .     S
C12    C13     1.205   .     S
C13    C14     1.438   .     S
C14    C15     1.398   .     S
H9     C15     1.084   .     S
C15    C16     1.402   .     S
C16    C17     1.406   .     S
C16    C18     1.476   .     S
C17    H10     1.083   .     S
H11    C18     1.085   .     S
C18    N4      1.294   .     S
N4     N5      1.399   .     S
N5     C19     1.294   .     S
H12    C19     1.085   .     S
C19    C20     1.476   .     S
C20    C21     1.405   .     S
C21    H13     1.084   .     S
C22    C23     1.399   .     S
H14    C23     1.083   .     S
C23    C24     1.398   .     S
C24    H15     1.083   .     S
C24    C25     1.403   .     S
C25    C26     1.476   .     S
C26    H16     1.084   .     S
H17    C27     1.082   .     S
C27    C28     1.398   .     S
C28    H18     1.083   .     S
C29    C30     1.205   .     S
C30    C31     1.438   .     S
C31    C32     1.398   .     S
H19    C32     1.084   .     S
C32    C33     1.402   .     S
C33    C35     1.476   .     S
C33    C34     1.406   .     S
C34    H20     1.083   .     S
H21    C35     1.085   .     S
C35    N7      1.294   .     S
N7     N8      1.399   .     S
N8     C36     1.294   .     S
H22    C36     1.085   .     S
C36    C37     1.476   .     S
C37    C102    1.403   .     S
C37    C38     1.405   .     S
C38    C99     1.399   .     S
C38    H23     1.084   .     S
C39    C97     1.437   .     S
C39    C40     1.399   .     S
C39    C96     1.399   .     S
H24    C40     1.083   .     S
C40    C41     1.398   .     S
C41    H25     1.083   .     S
C41    C42     1.403   .     S
C42    C43     1.476   .     S
C42    C95     1.407   .     S
C43    H26     1.084   .     S
C43    N18     1.295   .     S
N9     C94     1.295   .     S
N9     N18     1.399   .     S
H27    C44     1.082   .     S
C44    C93     1.407   .     S
C44    C45     1.398   .     S
C45    H28     1.083   .     S
C45    C90     1.399   .     S
C46    C47     1.205   .     S
C46    C90     1.437   .     S
C47    C48     1.438   .     S
C48    C89     1.399   .     S
C48    C49     1.398   .     S
H29    C49     1.084   .     S
C49    C50     1.402   .     S
C50    C51     1.406   .     S
C51    H30     1.083   .     S
C51    C88     1.403   .     S
H31    C52     1.085   .     S
C52    N10     1.294   .     S
C52    C101    1.476   .     S
N10    N11     1.399   .     S
N11    C53     1.294   .     S
H32    C53     1.085   .     S
C53    C54     1.476   .     S
C54    C55     1.405   .     S
C55    H33     1.084   .     S
C56    C57     1.399   .     S
H34    C57     1.083   .     S
C57    C58     1.398   .     S
C58    C59     1.403   .     S
C58    H35     1.083   .     S
C59    C60     1.476   .     S
C60    H36     1.084   .     S
H37    C61     1.082   .     S
C61    C62     1.398   .     S
C62    H38     1.083   .     S
C63    C64     1.205   .     S
C64    C65     1.438   .     S
C65    C66     1.398   .     S
H39    C66     1.084   .     S
C66    C67     1.402   .     S
C67    C69     1.476   .     S
C67    C68     1.406   .     S
C68    H40     1.083   .     S
H41    C69     1.085   .     S
C69    N13     1.294   .     S
N13    N14     1.399   .     S
N14    C70     1.294   .     S
H42    C70     1.085   .     S
C70    C71     1.476   .     S
C71    C72     1.405   .     S
C72    H43     1.084   .     S
C73    C74     1.399   .     S
H44    C74     1.083   .     S
C74    C75     1.398   .     S
C75    H45     1.083   .     S
C75    C76     1.403   .     S
C76    C77     1.476   .     S
C77    H46     1.084   .     S
H47    C78     1.082   .     S
C78    C79     1.398   .     S
C79    H48     1.083   .     S
C80    C81     1.205   .     S
C81    C82     1.438   .     S
C82    C83     1.398   .     S
H49    C83     1.084   .     S
C83    C84     1.402   .     S
C84    C86     1.476   .     S
C84    C85     1.406   .     S
C85    H50     1.083   .     S
H51    C86     1.085   .     S
C86    N16     1.294   .     S
N16    N17     1.399   .     S
N17    C87     1.294   .     S
H52    C87     1.085   .     S
C87    C88     1.476   .     S
C88    C89     1.405   .     S
C89    H53     1.084   .     S
C90    C91     1.399   .     S
H54    C91     1.083   .     S
C91    C92     1.398   .     S
C92    C93     1.403   .     S
C92    H55     1.083   .     S
C93    C94     1.476   .     S
C94    H56     1.084   .     S
H57    C95     1.082   .     S
C95    C96     1.398   .     S
C96    H58     1.083   .     S
C97    C98     1.205   .     S
C98    C99     1.438   .     S
C99    C100    1.398   .     S
H59    C100    1.084   .     S
C100   C101    1.402   .     S
C101   C102    1.406   .     S
C102   H60     1.083   .     S
