data_HP-COF-1
_audit_creation_date              2016-12-13
_audit_creation_method            'Materials Studio'
_symmetry_space_group_name_H-M    'P1'
_symmetry_Int_Tables_number       1
_symmetry_cell_setting            triclinic
loop_
_symmetry_equiv_pos_as_xyz
  x,y,z
_cell_length_a                    35.0000
_cell_length_b                    35.0000
_cell_length_c                    3.4400
_cell_angle_alpha                 90.0000
_cell_angle_beta                  90.0000
_cell_angle_gamma                 120.0000
loop_
_atom_site_label
_atom_site_type_symbol
_atom_site_fract_x
_atom_site_fract_y
_atom_site_fract_z
_atom_site_U_iso_or_equiv
_atom_site_adp_type
_atom_site_occupancy
H1     H     0.68877   0.82235   0.00000   0.00000  Uiso   1.00
C1     C     0.72279   0.82975   0.00000   0.00000  Uiso   1.00
N1     N     0.75428   0.87048   0.00000   0.00000  Uiso   1.00
N2     N     0.74473   0.90482   0.00000   0.00000  Uiso   1.00
H2     H     0.81017   0.95318   0.00000   0.00000  Uiso   1.00
C2     C     0.77610   0.94560   0.00000   0.00000  Uiso   1.00
C3     C     0.76630   0.98206   0.00000   0.00000  Uiso   1.00
C4     C     0.72267   0.97389   0.00000   0.00000  Uiso   1.00
H3     H     0.69691   0.93995   0.00000   0.00000  Uiso   1.00
C5     C     0.66587   0.99971   0.00000   0.00000  Uiso   1.00
H4     H     0.63285   0.92734   0.00000   0.00000  Uiso   1.00
C6     C     0.62934   0.95614   0.00000   0.00000  Uiso   1.00
C7     C     0.58599   0.94801   0.00000   0.00000  Uiso   1.00
H5     H     0.55907   0.91419   0.00000   0.00000  Uiso   1.00
C8     C     0.57729   0.98282   0.00000   0.00000  Uiso   1.00
C9     C     0.53115   0.97322   0.00000   0.00000  Uiso   1.00
H6     H     0.50458   0.93918   0.00000   0.00000  Uiso   1.00
N3     N     0.47807   0.99528   0.00000   0.00000  Uiso   1.00
H7     H     0.39296   0.94618   0.00000   0.00000  Uiso   1.00
C10    C     0.38725   0.97386   0.00000   0.00000  Uiso   1.00
C11    C     0.34382   0.96551   0.00000   0.00000  Uiso   1.00
H8     H     0.31870   0.93128   0.00000   0.00000  Uiso   1.00
C12    C     0.28693   0.99130   0.00000   0.00000  Uiso   1.00
H9     H     0.25483   0.91939   0.00000   0.00000  Uiso   1.00
C13    C     0.25051   0.94772   0.00000   0.00000  Uiso   1.00
C14    C     0.20688   0.93921   0.00000   0.00000  Uiso   1.00
C15    C     0.19875   0.97379   0.00000   0.00000  Uiso   1.00
H10    H     0.16515   0.96826   0.00000   0.00000  Uiso   1.00
H11    H     0.17765   0.86642   0.00000   0.00000  Uiso   1.00
C16    C     0.17025   0.89304   0.00000   0.00000  Uiso   1.00
N4     N     0.12952   0.88380   0.00000   0.00000  Uiso   1.00
N5     N     0.09518   0.83991   0.00000   0.00000  Uiso   1.00
H12    H     0.04682   0.85699   0.00000   0.00000  Uiso   1.00
C17    C     0.05440   0.83050   0.00000   0.00000  Uiso   1.00
C18    C     0.01794   0.78424   0.00000   0.00000  Uiso   1.00
C19    C     0.02611   0.74878   0.00000   0.00000  Uiso   1.00
H13    H     0.06005   0.75696   0.00000   0.00000  Uiso   1.00
C20    C     0.00029   0.66616   0.00000   0.00000  Uiso   1.00
H14    H     0.07266   0.70551   0.00000   0.00000  Uiso   1.00
C21    C     0.04386   0.67320   0.00000   0.00000  Uiso   1.00
C22    C     0.05199   0.63798   0.00000   0.00000  Uiso   1.00
H15    H     0.08581   0.64488   0.00000   0.00000  Uiso   1.00
C23    C     0.01718   0.59447   0.00000   0.00000  Uiso   1.00
C24    C     0.02678   0.55793   0.00000   0.00000  Uiso   1.00
H16    H     0.06082   0.56540   0.00000   0.00000  Uiso   1.00
N6     N     0.00472   0.48279   0.00000   0.00000  Uiso   1.00
H17    H     0.05382   0.44678   0.00000   0.00000  Uiso   1.00
C25    C     0.02614   0.41339   0.00000   0.00000  Uiso   1.00
C26    C     0.03449   0.37831   0.00000   0.00000  Uiso   1.00
H18    H     0.06872   0.38742   0.00000   0.00000  Uiso   1.00
C27    C     0.00870   0.29563   0.00000   0.00000  Uiso   1.00
H19    H     0.08061   0.33544   0.00000   0.00000  Uiso   1.00
C28    C     0.05228   0.30279   0.00000   0.00000  Uiso   1.00
C29    C     0.06079   0.26767   0.00000   0.00000  Uiso   1.00
C30    C     0.02621   0.22496   0.00000   0.00000  Uiso   1.00
H20    H     0.03174   0.19689   0.00000   0.00000  Uiso   1.00
H21    H     0.13358   0.31123   0.00000   0.00000  Uiso   1.00
C31    C     0.10696   0.27721   0.00000   0.00000  Uiso   1.00
N7     N     0.11620   0.24572   0.00000   0.00000  Uiso   1.00
N8     N     0.16009   0.25527   0.00000   0.00000  Uiso   1.00
H22    H     0.14301   0.18983   0.00000   0.00000  Uiso   1.00
C32    C     0.16950   0.22390   0.00000   0.00000  Uiso   1.00
C33    C     0.21576   0.23370   0.00000   0.00000  Uiso   1.00
C34    C     0.25122   0.27733   0.00000   0.00000  Uiso   1.00
H23    H     0.24304   0.30309   0.00000   0.00000  Uiso   1.00
C35    C     0.33384   0.33413   0.00000   0.00000  Uiso   1.00
H24    H     0.29449   0.36715   0.00000   0.00000  Uiso   1.00
C36    C     0.32680   0.37066   0.00000   0.00000  Uiso   1.00
C37    C     0.36202   0.41401   0.00000   0.00000  Uiso   1.00
H25    H     0.35512   0.44093   0.00000   0.00000  Uiso   1.00
C38    C     0.40553   0.42271   0.00000   0.00000  Uiso   1.00
C39    C     0.44207   0.46885   0.00000   0.00000  Uiso   1.00
H26    H     0.43460   0.49542   0.00000   0.00000  Uiso   1.00
N9     N     0.51721   0.52193   0.00000   0.00000  Uiso   1.00
H27    H     0.55322   0.60704   0.00000   0.00000  Uiso   1.00
C40    C     0.58661   0.61275   0.00000   0.00000  Uiso   1.00
C41    C     0.62169   0.65618   0.00000   0.00000  Uiso   1.00
H28    H     0.61258   0.68130   0.00000   0.00000  Uiso   1.00
C42    C     0.70437   0.71307   0.00000   0.00000  Uiso   1.00
H29    H     0.66456   0.74517   0.00000   0.00000  Uiso   1.00
C43    C     0.69721   0.74949   0.00000   0.00000  Uiso   1.00
C44    C     0.73233   0.79312   0.00000   0.00000  Uiso   1.00
C45    C     0.77504   0.80125   0.00000   0.00000  Uiso   1.00
H30    H     0.80311   0.83485   0.00000   0.00000  Uiso   1.00
H31    H     0.31123   0.17765   0.00000   0.00000  Uiso   1.00
C46    C     0.27721   0.17025   0.00000   0.00000  Uiso   1.00
N10    N     0.24572   0.12952   0.00000   0.00000  Uiso   1.00
N11    N     0.25527   0.09518   0.00000   0.00000  Uiso   1.00
H32    H     0.18983   0.04682   0.00000   0.00000  Uiso   1.00
C47    C     0.22390   0.05440   0.00000   0.00000  Uiso   1.00
C48    C     0.23370   0.01794   0.00000   0.00000  Uiso   1.00
C49    C     0.27733   0.02611   0.00000   0.00000  Uiso   1.00
H33    H     0.30309   0.06005   0.00000   0.00000  Uiso   1.00
C50    C     0.33413   0.00029   0.00000   0.00000  Uiso   1.00
H34    H     0.36715   0.07266   0.00000   0.00000  Uiso   1.00
C51    C     0.37066   0.04386   0.00000   0.00000  Uiso   1.00
C52    C     0.41401   0.05199   0.00000   0.00000  Uiso   1.00
H35    H     0.44093   0.08581   0.00000   0.00000  Uiso   1.00
C53    C     0.42271   0.01718   0.00000   0.00000  Uiso   1.00
C54    C     0.46885   0.02678   0.00000   0.00000  Uiso   1.00
H36    H     0.49542   0.06082   0.00000   0.00000  Uiso   1.00
N12    N     0.52193   0.00472   0.00000   0.00000  Uiso   1.00
H37    H     0.60704   0.05382   0.00000   0.00000  Uiso   1.00
C55    C     0.61275   0.02614   0.00000   0.00000  Uiso   1.00
C56    C     0.65618   0.03449   0.00000   0.00000  Uiso   1.00
H38    H     0.68130   0.06872   0.00000   0.00000  Uiso   1.00
C57    C     0.71307   0.00870   0.00000   0.00000  Uiso   1.00
H39    H     0.74517   0.08061   0.00000   0.00000  Uiso   1.00
C58    C     0.74949   0.05228   0.00000   0.00000  Uiso   1.00
C59    C     0.79312   0.06079   0.00000   0.00000  Uiso   1.00
C60    C     0.80125   0.02621   0.00000   0.00000  Uiso   1.00
H40    H     0.83485   0.03174   0.00000   0.00000  Uiso   1.00
H41    H     0.82235   0.13358   0.00000   0.00000  Uiso   1.00
C61    C     0.82975   0.10696   0.00000   0.00000  Uiso   1.00
N13    N     0.87048   0.11620   0.00000   0.00000  Uiso   1.00
N14    N     0.90482   0.16009   0.00000   0.00000  Uiso   1.00
H42    H     0.95318   0.14301   0.00000   0.00000  Uiso   1.00
C62    C     0.94560   0.16950   0.00000   0.00000  Uiso   1.00
C63    C     0.98206   0.21576   0.00000   0.00000  Uiso   1.00
C64    C     0.97389   0.25122   0.00000   0.00000  Uiso   1.00
H43    H     0.93995   0.24304   0.00000   0.00000  Uiso   1.00
C65    C     0.99971   0.33384   0.00000   0.00000  Uiso   1.00
H44    H     0.92734   0.29449   0.00000   0.00000  Uiso   1.00
C66    C     0.95614   0.32680   0.00000   0.00000  Uiso   1.00
C67    C     0.94801   0.36202   0.00000   0.00000  Uiso   1.00
H45    H     0.91419   0.35512   0.00000   0.00000  Uiso   1.00
C68    C     0.98282   0.40553   0.00000   0.00000  Uiso   1.00
C69    C     0.97322   0.44207   0.00000   0.00000  Uiso   1.00
H46    H     0.93918   0.43460   0.00000   0.00000  Uiso   1.00
N15    N     0.99528   0.51721   0.00000   0.00000  Uiso   1.00
H47    H     0.94618   0.55322   0.00000   0.00000  Uiso   1.00
C70    C     0.97386   0.58661   0.00000   0.00000  Uiso   1.00
C71    C     0.96551   0.62169   0.00000   0.00000  Uiso   1.00
H48    H     0.93128   0.61258   0.00000   0.00000  Uiso   1.00
C72    C     0.99130   0.70437   0.00000   0.00000  Uiso   1.00
H49    H     0.91939   0.66456   0.00000   0.00000  Uiso   1.00
C73    C     0.94772   0.69721   0.00000   0.00000  Uiso   1.00
C74    C     0.93921   0.73233   0.00000   0.00000  Uiso   1.00
C75    C     0.97379   0.77504   0.00000   0.00000  Uiso   1.00
H50    H     0.96826   0.80311   0.00000   0.00000  Uiso   1.00
H51    H     0.86642   0.68877   0.00000   0.00000  Uiso   1.00
C76    C     0.89304   0.72279   0.00000   0.00000  Uiso   1.00
N16    N     0.88380   0.75428   0.00000   0.00000  Uiso   1.00
N17    N     0.83991   0.74473   0.00000   0.00000  Uiso   1.00
H52    H     0.85699   0.81017   0.00000   0.00000  Uiso   1.00
C77    C     0.83050   0.77610   0.00000   0.00000  Uiso   1.00
C78    C     0.78424   0.76630   0.00000   0.00000  Uiso   1.00
C79    C     0.74878   0.72267   0.00000   0.00000  Uiso   1.00
H53    H     0.75696   0.69691   0.00000   0.00000  Uiso   1.00
C80    C     0.66616   0.66587   0.00000   0.00000  Uiso   1.00
H54    H     0.70551   0.63285   0.00000   0.00000  Uiso   1.00
C81    C     0.67320   0.62934   0.00000   0.00000  Uiso   1.00
C82    C     0.63798   0.58599   0.00000   0.00000  Uiso   1.00
H55    H     0.64488   0.55907   0.00000   0.00000  Uiso   1.00
C83    C     0.59447   0.57729   0.00000   0.00000  Uiso   1.00
C84    C     0.55793   0.53115   0.00000   0.00000  Uiso   1.00
H56    H     0.56540   0.50458   0.00000   0.00000  Uiso   1.00
N18    N     0.48279   0.47807   0.00000   0.00000  Uiso   1.00
H57    H     0.44678   0.39296   0.00000   0.00000  Uiso   1.00
C85    C     0.41339   0.38725   0.00000   0.00000  Uiso   1.00
C86    C     0.37831   0.34382   0.00000   0.00000  Uiso   1.00
H58    H     0.38742   0.31870   0.00000   0.00000  Uiso   1.00
C87    C     0.29563   0.28693   0.00000   0.00000  Uiso   1.00
H59    H     0.33544   0.25483   0.00000   0.00000  Uiso   1.00
C88    C     0.30279   0.25051   0.00000   0.00000  Uiso   1.00
C89    C     0.26767   0.20688   0.00000   0.00000  Uiso   1.00
C90    C     0.22496   0.19875   0.00000   0.00000  Uiso   1.00
H60    H     0.19689   0.16515   0.00000   0.00000  Uiso   1.00
loop_
_geom_bond_atom_site_label_1
_geom_bond_atom_site_label_2
_geom_bond_distance
_geom_bond_site_symmetry_2
_ccdc_geom_bond_type
H1     C1      1.085   .     S
C1     N1      1.295   .     S
C1     C44     1.478   .     S
N1     N2      1.399   .     S
N2     C2      1.294   .     S
H2     C2      1.084   .     S
C2     C3      1.478   .     S
C3     C4      1.406   .     S
C4     H3      1.074   .     S
C5     C6      1.418   .     S
H4     C6      1.075   .     S
C6     C7      1.397   .     S
C7     C8      1.396   .     S
C7     H5      1.083   .     S
C8     C9      1.476   .     S
C9     H6      1.085   .     S
H7     C10     1.083   .     S
C10    C11     1.397   .     S
C11    H8      1.075   .     S
C12    C13     1.417   .     S
H9     C13     1.075   .     S
C13    C14     1.402   .     S
C14    C15     1.375   .     S
C14    C16     1.478   .     S
C15    H10     1.092   .     S
H11    C16     1.085   .     S
C16    N4      1.295   .     S
N4     N5      1.399   .     S
N5     C17     1.294   .     S
H12    C17     1.084   .     S
C17    C18     1.478   .     S
C18    C19     1.406   .     S
C19    H13     1.074   .     S
C20    C21     1.418   .     S
H14    C21     1.075   .     S
C21    C22     1.397   .     S
C22    C23     1.396   .     S
C22    H15     1.083   .     S
C23    C24     1.476   .     S
C24    H16     1.085   .     S
H17    C25     1.083   .     S
C25    C26     1.397   .     S
C26    H18     1.075   .     S
C27    C28     1.417   .     S
H19    C28     1.075   .     S
C28    C29     1.402   .     S
C29    C31     1.478   .     S
C29    C30     1.375   .     S
C30    H20     1.092   .     S
H21    C31     1.085   .     S
C31    N7      1.295   .     S
N7     N8      1.399   .     S
N8     C32     1.294   .     S
H22    C32     1.084   .     S
C32    C33     1.478   .     S
C33    C90     1.412   .     S
C33    C34     1.406   .     S
C34    C87     1.417   .     S
C34    H23     1.074   .     S
C35    C86     1.418   .     S
C35    C36     1.418   .     S
C35    C87     1.519   .     S
H24    C36     1.075   .     S
C36    C37     1.397   .     S
C37    C38     1.396   .     S
C37    H25     1.083   .     S
C38    C39     1.476   .     S
C38    C85     1.399   .     S
C39    N18     1.294   .     S
C39    H26     1.085   .     S
N9     N18     1.399   .     S
N9     C84     1.294   .     S
H27    C40     1.083   .     S
C40    C41     1.397   .     S
C40    C83     1.399   .     S
C41    H28     1.075   .     S
C41    C80     1.418   .     S
C42    C43     1.417   .     S
C42    C79     1.417   .     S
C42    C80     1.519   .     S
H29    C43     1.075   .     S
C43    C44     1.402   .     S
C44    C45     1.375   .     S
C45    C78     1.412   .     S
C45    H30     1.092   .     S
H31    C46     1.085   .     S
C46    N10     1.295   .     S
C46    C89     1.478   .     S
N10    N11     1.399   .     S
N11    C47     1.294   .     S
H32    C47     1.084   .     S
C47    C48     1.478   .     S
C48    C49     1.406   .     S
C49    H33     1.074   .     S
C50    C51     1.418   .     S
H34    C51     1.075   .     S
C51    C52     1.397   .     S
C52    C53     1.396   .     S
C52    H35     1.083   .     S
C53    C54     1.476   .     S
C54    H36     1.085   .     S
H37    C55     1.083   .     S
C55    C56     1.397   .     S
C56    H38     1.075   .     S
C57    C58     1.417   .     S
H39    C58     1.075   .     S
C58    C59     1.402   .     S
C59    C61     1.478   .     S
C59    C60     1.375   .     S
C60    H40     1.092   .     S
H41    C61     1.085   .     S
C61    N13     1.295   .     S
N13    N14     1.399   .     S
N14    C62     1.294   .     S
H42    C62     1.084   .     S
C62    C63     1.478   .     S
C63    C64     1.406   .     S
C64    H43     1.074   .     S
C65    C66     1.418   .     S
H44    C66     1.075   .     S
C66    C67     1.397   .     S
C67    C68     1.396   .     S
C67    H45     1.083   .     S
C68    C69     1.476   .     S
C69    H46     1.085   .     S
H47    C70     1.083   .     S
C70    C71     1.397   .     S
C71    H48     1.075   .     S
C72    C73     1.417   .     S
H49    C73     1.075   .     S
C73    C74     1.402   .     S
C74    C76     1.478   .     S
C74    C75     1.375   .     S
C75    H50     1.092   .     S
H51    C76     1.085   .     S
C76    N16     1.295   .     S
N16    N17     1.399   .     S
N17    C77     1.294   .     S
H52    C77     1.084   .     S
C77    C78     1.478   .     S
C78    C79     1.406   .     S
C79    H53     1.074   .     S
C80    C81     1.418   .     S
H54    C81     1.075   .     S
C81    C82     1.397   .     S
C82    C83     1.396   .     S
C82    H55     1.083   .     S
C83    C84     1.476   .     S
C84    H56     1.085   .     S
H57    C85     1.083   .     S
C85    C86     1.397   .     S
C86    H58     1.075   .     S
C87    C88     1.417   .     S
H59    C88     1.075   .     S
C88    C89     1.402   .     S
C89    C90     1.375   .     S
C90    H60     1.092   .     S
