data_HPB-COF
_audit_creation_date              2016-12-13
_audit_creation_method            'Materials Studio'
_symmetry_space_group_name_H-M    'P1'
_symmetry_Int_Tables_number       1
_symmetry_cell_setting            triclinic
loop_
_symmetry_equiv_pos_as_xyz
  x,y,z
_cell_length_a                    21.4991
_cell_length_b                    21.4991
_cell_length_c                    5.6327
_cell_angle_alpha                 90.0000
_cell_angle_beta                  90.0000
_cell_angle_gamma                 120.0000
loop_
_atom_site_label
_atom_site_type_symbol
_atom_site_fract_x
_atom_site_fract_y
_atom_site_fract_z
_atom_site_U_iso_or_equiv
_atom_site_adp_type
_atom_site_occupancy
C1     C     0.06517   0.06789   0.67106   0.00000  Uiso   1.00
C2     C     0.93211   0.99728   0.67106   0.00000  Uiso   1.00
C3     C     0.00272   0.93483   0.67106   0.00000  Uiso   1.00
C4     C     0.93483   0.93211   0.67106   0.00000  Uiso   1.00
C5     C     0.06789   0.00272   0.67106   0.00000  Uiso   1.00
C6     C     0.99728   0.06517   0.67106   0.00000  Uiso   1.00
C7     C     0.03731   0.85220   0.48552   0.00000  Uiso   1.00
C8     C     0.14780   0.18511   0.48552   0.00000  Uiso   1.00
C9     C     0.81489   0.96269   0.48552   0.00000  Uiso   1.00
C10    C     0.96269   0.14780   0.48552   0.00000  Uiso   1.00
C11    C     0.85220   0.81489   0.48552   0.00000  Uiso   1.00
C12    C     0.18511   0.03731   0.48552   0.00000  Uiso   1.00
C13    C     0.04110   0.78870   0.49119   0.00000  Uiso   1.00
C14    C     0.21130   0.25240   0.49119   0.00000  Uiso   1.00
C15    C     0.74760   0.95890   0.49119   0.00000  Uiso   1.00
C16    C     0.95890   0.21130   0.49119   0.00000  Uiso   1.00
C17    C     0.78870   0.74760   0.49119   0.00000  Uiso   1.00
C18    C     0.25240   0.04110   0.49119   0.00000  Uiso   1.00
C19    C     0.01080   0.74004   0.68102   0.00000  Uiso   1.00
C20    C     0.25996   0.27077   0.68102   0.00000  Uiso   1.00
C21    C     0.72923   0.98920   0.68102   0.00000  Uiso   1.00
C22    C     0.98920   0.25996   0.68102   0.00000  Uiso   1.00
C23    C     0.74004   0.72923   0.68102   0.00000  Uiso   1.00
C24    C     0.27077   0.01080   0.68102   0.00000  Uiso   1.00
C25    C     0.97840   0.75694   0.86899   0.00000  Uiso   1.00
C26    C     0.24306   0.22146   0.86899   0.00000  Uiso   1.00
C27    C     0.77854   0.02160   0.86899   0.00000  Uiso   1.00
C28    C     0.02160   0.24306   0.86899   0.00000  Uiso   1.00
C29    C     0.75694   0.77854   0.86899   0.00000  Uiso   1.00
C30    C     0.22146   0.97840   0.86899   0.00000  Uiso   1.00
C31    C     0.97673   0.82154   0.86659   0.00000  Uiso   1.00
C32    C     0.17846   0.15519   0.86659   0.00000  Uiso   1.00
C33    C     0.84481   0.02327   0.86659   0.00000  Uiso   1.00
C34    C     0.02327   0.17846   0.86659   0.00000  Uiso   1.00
C35    C     0.82154   0.84481   0.86659   0.00000  Uiso   1.00
C36    C     0.15519   0.97673   0.86659   0.00000  Uiso   1.00
C37    C     0.00545   0.86996   0.67382   0.00000  Uiso   1.00
C38    C     0.13004   0.13549   0.67382   0.00000  Uiso   1.00
C39    C     0.86450   0.99455   0.67382   0.00000  Uiso   1.00
C40    C     0.99455   0.13004   0.67382   0.00000  Uiso   1.00
C41    C     0.86996   0.86450   0.67382   0.00000  Uiso   1.00
C42    C     0.13549   0.00545   0.67382   0.00000  Uiso   1.00
C43    C     0.57260   0.01484   0.76062   0.00000  Uiso   1.00
C44    C     0.98515   0.55775   0.76062   0.00000  Uiso   1.00
C45    C     0.44225   0.42740   0.76062   0.00000  Uiso   1.00
C46    C     0.42740   0.98515   0.76062   0.00000  Uiso   1.00
C47    C     0.01484   0.44225   0.76062   0.00000  Uiso   1.00
C48    C     0.55775   0.57260   0.76062   0.00000  Uiso   1.00
C49    C     0.51468   0.94333   0.75847   0.00000  Uiso   1.00
C50    C     0.05667   0.57135   0.75847   0.00000  Uiso   1.00
C51    C     0.42865   0.48532   0.75847   0.00000  Uiso   1.00
C52    C     0.48532   0.05667   0.75847   0.00000  Uiso   1.00
C53    C     0.94333   0.42865   0.75847   0.00000  Uiso   1.00
C54    C     0.57135   0.51468   0.75847   0.00000  Uiso   1.00
C55    C     0.44309   0.92866   0.76103   0.00000  Uiso   1.00
C56    C     0.07134   0.51444   0.76103   0.00000  Uiso   1.00
C57    C     0.48556   0.55691   0.76103   0.00000  Uiso   1.00
C58    C     0.55691   0.07134   0.76103   0.00000  Uiso   1.00
C59    C     0.92866   0.48556   0.76103   0.00000  Uiso   1.00
C60    C     0.51444   0.44309   0.76103   0.00000  Uiso   1.00
H61    H     0.52434   0.90129   0.75755   0.00000  Uiso   1.00
H62    H     0.09871   0.62306   0.75755   0.00000  Uiso   1.00
H63    H     0.37694   0.47566   0.75755   0.00000  Uiso   1.00
H64    H     0.47566   0.09871   0.75755   0.00000  Uiso   1.00
H65    H     0.90129   0.37694   0.75755   0.00000  Uiso   1.00
H66    H     0.62306   0.52434   0.75755   0.00000  Uiso   1.00
H67    H     0.40249   0.87623   0.76212   0.00000  Uiso   1.00
H68    H     0.12377   0.52626   0.76212   0.00000  Uiso   1.00
H69    H     0.47374   0.59751   0.76212   0.00000  Uiso   1.00
H70    H     0.59751   0.12377   0.76212   0.00000  Uiso   1.00
H71    H     0.87623   0.47374   0.76212   0.00000  Uiso   1.00
H72    H     0.52626   0.40249   0.76212   0.00000  Uiso   1.00
H73    H     0.05840   0.88579   0.34346   0.00000  Uiso   1.00
H74    H     0.11421   0.17261   0.34346   0.00000  Uiso   1.00
H75    H     0.82739   0.94160   0.34346   0.00000  Uiso   1.00
H76    H     0.94160   0.11421   0.34346   0.00000  Uiso   1.00
H77    H     0.88579   0.82739   0.34346   0.00000  Uiso   1.00
H78    H     0.17261   0.05840   0.34346   0.00000  Uiso   1.00
H79    H     0.06554   0.77753   0.35519   0.00000  Uiso   1.00
H80    H     0.22246   0.28801   0.35519   0.00000  Uiso   1.00
H81    H     0.71199   0.93446   0.35519   0.00000  Uiso   1.00
H82    H     0.93446   0.22246   0.35519   0.00000  Uiso   1.00
H83    H     0.77753   0.71199   0.35519   0.00000  Uiso   1.00
H84    H     0.28801   0.06554   0.35519   0.00000  Uiso   1.00
H85    H     0.95676   0.72277   1.00981   0.00000  Uiso   1.00
H86    H     0.27723   0.23399   1.00981   0.00000  Uiso   1.00
H87    H     0.76601   0.04323   1.00981   0.00000  Uiso   1.00
H88    H     0.04323   0.27723   1.00981   0.00000  Uiso   1.00
H89    H     0.72277   0.76601   1.00981   0.00000  Uiso   1.00
H90    H     0.23399   0.95676   1.00981   0.00000  Uiso   1.00
H91    H     0.95418   0.83310   1.00674   0.00000  Uiso   1.00
H92    H     0.16690   0.12108   1.00674   0.00000  Uiso   1.00
H93    H     0.87892   0.04582   1.00674   0.00000  Uiso   1.00
H94    H     0.04582   0.16690   1.00674   0.00000  Uiso   1.00
H95    H     0.83310   0.87892   1.00674   0.00000  Uiso   1.00
H96    H     0.12108   0.95418   1.00674   0.00000  Uiso   1.00
N97    N     0.67966   0.66409   0.67508   0.00000  Uiso   1.00
N98    N     0.33591   0.01557   0.67508   0.00000  Uiso   1.00
N99    N     0.98443   0.32034   0.67508   0.00000  Uiso   1.00
N100   N     0.32034   0.33591   0.67508   0.00000  Uiso   1.00
N101   N     0.66409   0.98443   0.67508   0.00000  Uiso   1.00
N102   N     0.01557   0.67966   0.67508   0.00000  Uiso   1.00
C103   C     0.61405   0.64438   0.76584   0.00000  Uiso   1.00
C104   C     0.35562   0.96967   0.76584   0.00000  Uiso   1.00
C105   C     0.03033   0.38595   0.76584   0.00000  Uiso   1.00
C106   C     0.38595   0.35562   0.76584   0.00000  Uiso   1.00
C107   C     0.64438   0.03033   0.76584   0.00000  Uiso   1.00
C108   C     0.96967   0.61405   0.76584   0.00000  Uiso   1.00
H109   H     0.60440   0.68268   0.83628   0.00000  Uiso   1.00
H110   H     0.31732   0.92171   0.83628   0.00000  Uiso   1.00
H111   H     0.07829   0.39560   0.83628   0.00000  Uiso   1.00
H112   H     0.39560   0.31732   0.83628   0.00000  Uiso   1.00
H113   H     0.68268   0.07829   0.83628   0.00000  Uiso   1.00
H114   H     0.92171   0.60440   0.83628   0.00000  Uiso   1.00
loop_
_geom_bond_atom_site_label_1
_geom_bond_atom_site_label_2
_geom_bond_distance
_geom_bond_site_symmetry_2
_ccdc_geom_bond_type
C1     C5      1.431   .     S
C1     C38     1.425   .     S
C2     C39     1.425   .     S
C2     C4      1.431   .     S
C3     C37     1.425   .     S
C4     C41     1.425   .     S
C5     C42     1.425   .     S
C6     C40     1.425   .     S
C7     C13     1.408   .     S
C7     H73     1.020   .     S
C7     C37     1.415   .     S
C8     H74     1.020   .     S
C8     C14     1.408   .     S
C8     C38     1.415   .     S
C9     C15     1.408   .     S
C9     H75     1.020   .     S
C9     C39     1.415   .     S
C10    H76     1.020   .     S
C10    C16     1.408   .     S
C10    C40     1.415   .     S
C11    H77     1.020   .     S
C11    C17     1.408   .     S
C11    C41     1.415   .     S
C12    C18     1.408   .     S
C12    H78     1.020   .     S
C12    C42     1.415   .     S
C13    H79     1.023   .     S
C13    C19     1.407   .     S
C14    H80     1.023   .     S
C14    C20     1.407   .     S
C15    H81     1.023   .     S
C15    C21     1.407   .     S
C16    H82     1.023   .     S
C16    C22     1.407   .     S
C17    H83     1.023   .     S
C17    C23     1.407   .     S
C18    H84     1.023   .     S
C18    C24     1.407   .     S
C19    N102    1.353   .     S
C20    C26     1.411   .     S
C20    N100    1.353   .     S
C21    N101    1.353   .     S
C22    N99     1.353   .     S
C23    C29     1.411   .     S
C23    N97     1.353   .     S
C24    N98     1.353   .     S
C25    C31     1.407   .     S
C25    H85     1.022   .     S
C26    C32     1.407   .     S
C26    H86     1.022   .     S
C27    C33     1.407   .     S
C27    H87     1.022   .     S
C28    C34     1.407   .     S
C28    H88     1.022   .     S
C29    C35     1.407   .     S
C29    H89     1.022   .     S
C30    C36     1.407   .     S
C30    H90     1.022   .     S
C31    H91     1.020   .     S
C32    C38     1.415   .     S
C32    H92     1.020   .     S
C33    H93     1.020   .     S
C34    H94     1.020   .     S
C35    C41     1.415   .     S
C35    H95     1.020   .     S
C36    H96     1.020   .     S
C43    C58     1.414   .     S
C43    C107    1.407   .     S
C44    C59     1.414   .     S
C44    C108    1.407   .     S
C45    C60     1.414   .     S
C45    C51     1.414   .     S
C45    C106    1.407   .     S
C46    C104    1.407   .     S
C46    C55     1.414   .     S
C47    C105    1.407   .     S
C47    C56     1.414   .     S
C48    C103    1.407   .     S
C48    C54     1.414   .     S
C48    C57     1.414   .     S
C49    H61     1.024   .     S
C49    C55     1.408   .     S
C50    H62     1.024   .     S
C50    C56     1.408   .     S
C51    C57     1.408   .     S
C51    H63     1.024   .     S
C52    C58     1.408   .     S
C52    H64     1.024   .     S
C53    C59     1.408   .     S
C53    H65     1.024   .     S
C54    H66     1.024   .     S
C54    C60     1.408   .     S
C55    H67     1.024   .     S
C56    H68     1.024   .     S
C57    H69     1.024   .     S
C58    H70     1.024   .     S
C59    H71     1.024   .     S
C60    H72     1.024   .     S
N97    C103    1.354   .     S
N100   C106    1.354   .     S
C103   H109    1.025   .     S
C104   H110    1.025   .     S
C105   H111    1.025   .     S
C106   H112    1.025   .     S
C107   H113    1.025   .     S
C108   H114    1.025   .     S
