data_ICOF-2
_audit_creation_date              2016-12-13
_audit_creation_method            'Materials Studio'
_symmetry_space_group_name_H-M    'P1'
_symmetry_Int_Tables_number       1
_symmetry_cell_setting            triclinic
loop_
_symmetry_equiv_pos_as_xyz
  x,y,z
_cell_length_a                    25.0000
_cell_length_b                    25.0000
_cell_length_c                    5.0000
_cell_angle_alpha                 90.0000
_cell_angle_beta                  90.0000
_cell_angle_gamma                 90.0000
loop_
_atom_site_label
_atom_site_type_symbol
_atom_site_fract_x
_atom_site_fract_y
_atom_site_fract_z
_atom_site_U_iso_or_equiv
_atom_site_adp_type
_atom_site_occupancy
C1     C     0.36249   0.78084   0.50000   0.00000  Uiso   1.00
C2     C     0.63751   0.21916   0.50000   0.00000  Uiso   1.00
C3     C     0.21916   0.36249   0.50000   0.00000  Uiso   1.00
C4     C     0.78084   0.63751   0.50000   0.00000  Uiso   1.00
C5     C     0.63751   0.78084   0.50000   0.00000  Uiso   1.00
C6     C     0.36249   0.21916   0.50000   0.00000  Uiso   1.00
C7     C     0.78084   0.36249   0.50000   0.00000  Uiso   1.00
C8     C     0.21916   0.63751   0.50000   0.00000  Uiso   1.00
C9     C     0.38006   0.72695   0.50000   0.00000  Uiso   1.00
C10    C     0.61994   0.27305   0.50000   0.00000  Uiso   1.00
C11    C     0.27305   0.38006   0.50000   0.00000  Uiso   1.00
C12    C     0.72695   0.61994   0.50000   0.00000  Uiso   1.00
C13    C     0.61994   0.72695   0.50000   0.00000  Uiso   1.00
C14    C     0.38006   0.27305   0.50000   0.00000  Uiso   1.00
C15    C     0.72695   0.38006   0.50000   0.00000  Uiso   1.00
C16    C     0.27305   0.61994   0.50000   0.00000  Uiso   1.00
C17    C     0.43531   0.71476   0.50000   0.00000  Uiso   1.00
C18    C     0.56469   0.28524   0.50000   0.00000  Uiso   1.00
C19    C     0.28524   0.43531   0.50000   0.00000  Uiso   1.00
C20    C     0.71476   0.56469   0.50000   0.00000  Uiso   1.00
C21    C     0.56469   0.71476   0.50000   0.00000  Uiso   1.00
C22    C     0.43531   0.28524   0.50000   0.00000  Uiso   1.00
C23    C     0.71476   0.43531   0.50000   0.00000  Uiso   1.00
C24    C     0.28524   0.56469   0.50000   0.00000  Uiso   1.00
C25    C     0.47216   0.75730   0.50000   0.00000  Uiso   1.00
C26    C     0.52784   0.24270   0.50000   0.00000  Uiso   1.00
C27    C     0.24270   0.47216   0.50000   0.00000  Uiso   1.00
C28    C     0.75730   0.52784   0.50000   0.00000  Uiso   1.00
C29    C     0.52784   0.75730   0.50000   0.00000  Uiso   1.00
C30    C     0.47216   0.24270   0.50000   0.00000  Uiso   1.00
C31    C     0.75730   0.47216   0.50000   0.00000  Uiso   1.00
C32    C     0.24270   0.52784   0.50000   0.00000  Uiso   1.00
C33    C     0.45473   0.81050   0.50000   0.00000  Uiso   1.00
C34    C     0.54527   0.18950   0.50000   0.00000  Uiso   1.00
C35    C     0.18950   0.45473   0.50000   0.00000  Uiso   1.00
C36    C     0.81050   0.54527   0.50000   0.00000  Uiso   1.00
C37    C     0.54527   0.81050   0.50000   0.00000  Uiso   1.00
C38    C     0.45473   0.18950   0.50000   0.00000  Uiso   1.00
C39    C     0.81050   0.45473   0.50000   0.00000  Uiso   1.00
C40    C     0.18950   0.54527   0.50000   0.00000  Uiso   1.00
C41    C     0.39992   0.82292   0.50000   0.00000  Uiso   1.00
C42    C     0.60008   0.17708   0.50000   0.00000  Uiso   1.00
C43    C     0.17708   0.39992   0.50000   0.00000  Uiso   1.00
C44    C     0.82292   0.60008   0.50000   0.00000  Uiso   1.00
C45    C     0.60008   0.82292   0.50000   0.00000  Uiso   1.00
C46    C     0.39992   0.17708   0.50000   0.00000  Uiso   1.00
C47    C     0.82292   0.39992   0.50000   0.00000  Uiso   1.00
C48    C     0.17708   0.60008   0.50000   0.00000  Uiso   1.00
C49    C     0.34481   0.68893   0.50000   0.00000  Uiso   1.00
C50    C     0.65519   0.31107   0.50000   0.00000  Uiso   1.00
C51    C     0.31107   0.34481   0.50000   0.00000  Uiso   1.00
C52    C     0.68893   0.65519   0.50000   0.00000  Uiso   1.00
C53    C     0.65519   0.68893   0.50000   0.00000  Uiso   1.00
C54    C     0.34481   0.31107   0.50000   0.00000  Uiso   1.00
C55    C     0.68893   0.34481   0.50000   0.00000  Uiso   1.00
C56    C     0.31107   0.65519   0.50000   0.00000  Uiso   1.00
H1     H     0.31783   0.79005   0.50000   0.00000  Uiso   1.00
H2     H     0.68217   0.20995   0.50000   0.00000  Uiso   1.00
H3     H     0.20995   0.31783   0.50000   0.00000  Uiso   1.00
H4     H     0.79005   0.68217   0.50000   0.00000  Uiso   1.00
H5     H     0.68217   0.79005   0.50000   0.00000  Uiso   1.00
H6     H     0.31783   0.20995   0.50000   0.00000  Uiso   1.00
H7     H     0.79005   0.31783   0.50000   0.00000  Uiso   1.00
H8     H     0.20995   0.68217   0.50000   0.00000  Uiso   1.00
H9     H     0.44907   0.67128   0.50000   0.00000  Uiso   1.00
H10    H     0.55093   0.32872   0.50000   0.00000  Uiso   1.00
H11    H     0.32872   0.44907   0.50000   0.00000  Uiso   1.00
H12    H     0.67128   0.55093   0.50000   0.00000  Uiso   1.00
H13    H     0.55093   0.67128   0.50000   0.00000  Uiso   1.00
H14    H     0.44907   0.32872   0.50000   0.00000  Uiso   1.00
H15    H     0.67128   0.44907   0.50000   0.00000  Uiso   1.00
H16    H     0.32872   0.55093   0.50000   0.00000  Uiso   1.00
H17    H     0.38635   0.86275   0.49842   0.00000  Uiso   1.00
H18    H     0.61365   0.13725   0.49842   0.00000  Uiso   1.00
H19    H     0.13725   0.38635   0.49842   0.00000  Uiso   1.00
H20    H     0.86275   0.61365   0.49842   0.00000  Uiso   1.00
H21    H     0.61365   0.86275   0.50158   0.00000  Uiso   1.00
H22    H     0.38635   0.13725   0.50158   0.00000  Uiso   1.00
H23    H     0.86275   0.38635   0.50158   0.00000  Uiso   1.00
H24    H     0.13725   0.61365   0.50158   0.00000  Uiso   1.00
C57    C     0.85145   0.50000   0.50000   0.00000  Uiso   1.00
C58    C     0.14855   0.50000   0.50000   0.00000  Uiso   1.00
C59    C     0.50000   0.85145   0.50000   0.00000  Uiso   1.00
C60    C     0.50000   0.14855   0.50000   0.00000  Uiso   1.00
C61    C     0.09944   0.48730   0.70637   0.00000  Uiso   1.00
C62    C     0.90056   0.51270   0.70637   0.00000  Uiso   1.00
C63    C     0.51270   0.09944   0.70637   0.00000  Uiso   1.00
C64    C     0.48730   0.90056   0.70637   0.00000  Uiso   1.00
C65    C     0.90056   0.48730   0.29363   0.00000  Uiso   1.00
C66    C     0.09944   0.51270   0.29363   0.00000  Uiso   1.00
C67    C     0.48730   0.09944   0.29363   0.00000  Uiso   1.00
C68    C     0.51270   0.90056   0.29363   0.00000  Uiso   1.00
O1     O     0.04399   0.47096   0.65642   0.00000  Uiso   1.00
O2     O     0.95601   0.52904   0.65642   0.00000  Uiso   1.00
O3     O     0.52904   0.04399   0.65642   0.00000  Uiso   1.00
O4     O     0.47096   0.95601   0.65642   0.00000  Uiso   1.00
O5     O     0.95601   0.47096   0.34358   0.00000  Uiso   1.00
O6     O     0.04399   0.52904   0.34358   0.00000  Uiso   1.00
O7     O     0.47096   0.04399   0.34358   0.00000  Uiso   1.00
O8     O     0.52904   0.95601   0.34358   0.00000  Uiso   1.00
B1     B     0.00000   0.50000   0.50000   0.00000  Uiso   1.00
B2     B     0.50000   0.00000   0.50000   0.00000  Uiso   1.00
H25    H     0.11560   0.45706   0.83724   0.00000  Uiso   1.00
H26    H     0.88440   0.54294   0.83724   0.00000  Uiso   1.00
H27    H     0.54294   0.11560   0.83724   0.00000  Uiso   1.00
H28    H     0.45706   0.88440   0.83724   0.00000  Uiso   1.00
H29    H     0.88440   0.45706   0.16276   0.00000  Uiso   1.00
H30    H     0.11560   0.54294   0.16276   0.00000  Uiso   1.00
H31    H     0.45706   0.11560   0.16276   0.00000  Uiso   1.00
H32    H     0.54294   0.88440   0.16276   0.00000  Uiso   1.00
H33    H     0.09277   0.52602   0.79376   0.00000  Uiso   1.00
H34    H     0.90723   0.47398   0.79376   0.00000  Uiso   1.00
H35    H     0.47398   0.09277   0.79376   0.00000  Uiso   1.00
H36    H     0.52602   0.90723   0.79376   0.00000  Uiso   1.00
H37    H     0.90723   0.52602   0.20624   0.00000  Uiso   1.00
H38    H     0.09277   0.47398   0.20624   0.00000  Uiso   1.00
H39    H     0.52602   0.09277   0.20624   0.00000  Uiso   1.00
H40    H     0.47398   0.90723   0.20624   0.00000  Uiso   1.00
Li1    Li    0.40000   0.00000   0.50000   0.00000  Uiso   1.00
Li2    Li    0.00000   0.40000   0.50000   0.00000  Uiso   1.00
loop_
_geom_bond_atom_site_label_1
_geom_bond_atom_site_label_2
_geom_bond_distance
_geom_bond_site_symmetry_2
_ccdc_geom_bond_type
C1     C41     1.408   .     S
C1     H1      1.140   .     S
C1     C9      1.417   .     S
C2     C10     1.417   .     S
C2     C42     1.408   .     S
C2     H2      1.140   .     S
C3     C11     1.417   .     S
C3     C43     1.408   .     S
C3     H3      1.140   .     S
C4     C44     1.408   .     S
C4     C12     1.417   .     S
C4     H4      1.140   .     S
C5     C45     1.408   .     S
C5     H5      1.140   .     S
C5     C13     1.417   .     S
C6     C14     1.417   .     S
C6     C46     1.408   .     S
C6     H6      1.140   .     S
C7     C47     1.408   .     S
C7     C15     1.417   .     S
C7     H7      1.140   .     S
C8     C16     1.417   .     S
C8     C48     1.408   .     S
C8     H8      1.140   .     S
C9     C17     1.415   .     S
C9     C49     1.296   .     S
C10    C18     1.415   .     S
C10    C50     1.296   .     S
C11    C19     1.415   .     S
C11    C51     1.296   .     S
C12    C52     1.296   .     S
C12    C20     1.415   .     S
C13    C21     1.415   .     S
C13    C53     1.296   .     S
C14    C54     1.296   .     S
C14    C22     1.415   .     S
C15    C23     1.415   .     S
C15    C55     1.296   .     S
C16    C56     1.296   .     S
C16    C24     1.415   .     S
C17    C25     1.407   .     S
C17    H9      1.140   .     S
C18    H10     1.140   .     S
C18    C26     1.407   .     S
C19    H11     1.140   .     S
C19    C27     1.407   .     S
C20    C28     1.407   .     S
C20    H12     1.140   .     S
C21    C29     1.407   .     S
C21    H13     1.140   .     S
C22    H14     1.140   .     S
C22    C30     1.407   .     S
C23    C31     1.407   .     S
C23    H15     1.140   .     S
C24    H16     1.140   .     S
C24    C32     1.407   .     S
C25    C29     1.392   .     S
C25    C33     1.399   .     S
C26    C30     1.392   .     S
C26    C34     1.399   .     S
C27    C35     1.399   .     S
C27    C32     1.392   .     S
C28    C36     1.399   .     S
C28    C31     1.392   .     S
C29    C37     1.399   .     S
C30    C38     1.399   .     S
C31    C39     1.399   .     S
C32    C40     1.399   .     S
C33    C41     1.405   .     S
C33    C59     1.526   .     S
C34    C60     1.526   .     S
C34    C42     1.405   .     S
C35    C58     1.526   .     S
C35    C43     1.405   .     S
C36    C57     1.526   .     S
C36    C44     1.405   .     S
C37    C45     1.405   .     S
C37    C59     1.526   .     S
C38    C46     1.405   .     S
C38    C60     1.526   .     S
C39    C57     1.526   .     S
C39    C47     1.405   .     S
C40    C58     1.526   .     S
C40    C48     1.405   .     S
C41    H17     1.052   .     S
C42    H18     1.052   .     S
C43    H19     1.052   .     S
C44    H20     1.052   .     S
C45    H21     1.052   .     S
C46    H22     1.052   .     S
C47    H23     1.052   .     S
C48    H24     1.052   .     S
C49    C56     1.193   .     S
C50    C55     1.193   .     S
C51    C54     1.193   .     S
C52    C53     1.193   .     S
C57    C62     1.635   .     S
C57    C65     1.635   .     S
C58    C61     1.635   .     S
C58    C66     1.635   .     S
C59    C64     1.635   .     S
C59    C68     1.635   .     S
C60    C63     1.635   .     S
C60    C67     1.635   .     S
C61    O1      1.467   .     S
C61    H33     1.075   .     S
C61    H25     1.078   .     S
C62    O2      1.467   .     S
C62    H26     1.078   .     S
C62    H34     1.075   .     S
C63    O3      1.467   .     S
C63    H27     1.078   .     S
C63    H35     1.075   .     S
C64    O4      1.467   .     S
C64    H28     1.078   .     S
C64    H36     1.075   .     S
C65    H29     1.078   .     S
C65    O5      1.467   .     S
C65    H37     1.075   .     S
C66    H30     1.078   .     S
C66    O6      1.467   .     S
C66    H38     1.075   .     S
C67    H31     1.078   .     S
C67    H39     1.075   .     S
C67    O7      1.467   .     S
C68    H32     1.078   .     S
C68    H40     1.075   .     S
C68    O8      1.467   .     S
O1     B1      1.532   .     S
O3     B2      1.532   .     S
O6     B1      1.532   .     S
O7     B2      1.532   .     S
