data_ILCOF-1-AA
_audit_creation_date              2016-12-13
_audit_creation_method            'Materials Studio'
_symmetry_space_group_name_H-M    'P1'
_symmetry_Int_Tables_number       1
_symmetry_cell_setting            triclinic
loop_
_symmetry_equiv_pos_as_xyz
  x,y,z
_cell_length_a                    34.7756
_cell_length_b                    34.1644
_cell_length_c                    6.5787
_cell_angle_alpha                 90.0000
_cell_angle_beta                  90.0000
_cell_angle_gamma                 90.0000
loop_
_atom_site_label
_atom_site_type_symbol
_atom_site_fract_x
_atom_site_fract_y
_atom_site_fract_z
_atom_site_U_iso_or_equiv
_atom_site_adp_type
_atom_site_occupancy
C1     C     0.46470   0.95740   0.98620   0.00000  Uiso   1.00
C2     C     0.43020   0.02150   0.98270   0.00000  Uiso   1.00
C3     C     0.46500   0.08400   0.98790   0.00000  Uiso   1.00
C4     C     0.42930   0.10730   1.00400   0.00000  Uiso   1.00
C5     C     0.40850   0.10760   1.18650   0.00000  Uiso   1.00
C6     C     0.37540   0.13040   1.20480   0.00000  Uiso   1.00
C7     C     0.36250   0.15330   1.04090   0.00000  Uiso   1.00
C8     C     0.38340   0.15290   0.85770   0.00000  Uiso   1.00
C9     C     0.41670   0.13020   0.83990   0.00000  Uiso   1.00
C10    C     0.32770   0.17750   1.06570   0.00000  Uiso   1.00
C11    C     0.78190   0.27550   0.92580   0.00000  Uiso   1.00
C12    C     0.76590   0.26250   0.74300   0.00000  Uiso   1.00
C13    C     0.73410   0.23750   1.11010   0.00000  Uiso   1.00
H1     H     0.40260   0.03610   0.97800   0.00000  Uiso   1.00
H2     H     0.41810   0.09040   1.31510   0.00000  Uiso   1.00
H3     H     0.35980   0.13040   1.34750   0.00000  Uiso   1.00
H4     H     0.37430   0.17020   0.72890   0.00000  Uiso   1.00
H5     H     0.43270   0.13030   0.69840   0.00000  Uiso   1.00
H6     H     0.31270   0.17630   1.20970   0.00000  Uiso   1.00
H7     H     0.77810   0.27210   0.60050   0.00000  Uiso   1.00
H8     H     0.72200   0.22900   1.25410   0.00000  Uiso   1.00
N1     N     0.31490   0.19910   0.91760   0.00000  Uiso   1.00
C14    C     0.96470   0.45740   0.98620   0.00000  Uiso   1.00
C15    C     0.93020   0.52150   0.98270   0.00000  Uiso   1.00
C16    C     0.96500   0.58400   0.98790   0.00000  Uiso   1.00
C17    C     0.92930   0.60730   1.00400   0.00000  Uiso   1.00
C18    C     0.90850   0.60760   1.18650   0.00000  Uiso   1.00
C19    C     0.87540   0.63040   1.20480   0.00000  Uiso   1.00
C20    C     0.86250   0.65330   1.04090   0.00000  Uiso   1.00
C21    C     0.88340   0.65290   0.85770   0.00000  Uiso   1.00
C22    C     0.91670   0.63020   0.83990   0.00000  Uiso   1.00
C23    C     0.82770   0.67750   1.06570   0.00000  Uiso   1.00
C24    C     0.28190   0.77550   0.92580   0.00000  Uiso   1.00
C25    C     0.26590   0.76250   0.74300   0.00000  Uiso   1.00
C26    C     0.23410   0.73750   1.11010   0.00000  Uiso   1.00
H9     H     0.90260   0.53610   0.97800   0.00000  Uiso   1.00
H10    H     0.91810   0.59040   1.31510   0.00000  Uiso   1.00
H11    H     0.85980   0.63040   1.34750   0.00000  Uiso   1.00
H12    H     0.87430   0.67020   0.72890   0.00000  Uiso   1.00
H13    H     0.93270   0.63030   0.69840   0.00000  Uiso   1.00
H14    H     0.81270   0.67630   1.20970   0.00000  Uiso   1.00
H15    H     0.27810   0.77210   0.60050   0.00000  Uiso   1.00
H16    H     0.22200   0.72900   1.25410   0.00000  Uiso   1.00
N2     N     0.81490   0.69910   0.91760   0.00000  Uiso   1.00
C27    C     0.53530   0.04260   0.98620   0.00000  Uiso   1.00
C28    C     0.56980   0.97850   0.98270   0.00000  Uiso   1.00
C29    C     0.53500   0.91600   0.98790   0.00000  Uiso   1.00
C30    C     0.57070   0.89270   1.00400   0.00000  Uiso   1.00
C31    C     0.59150   0.89240   1.18650   0.00000  Uiso   1.00
C32    C     0.62460   0.86960   1.20480   0.00000  Uiso   1.00
C33    C     0.63750   0.84670   1.04090   0.00000  Uiso   1.00
C34    C     0.61660   0.84710   0.85770   0.00000  Uiso   1.00
C35    C     0.58330   0.86980   0.83990   0.00000  Uiso   1.00
C36    C     0.67230   0.82250   1.06570   0.00000  Uiso   1.00
C37    C     0.21810   0.72450   0.92580   0.00000  Uiso   1.00
C38    C     0.23410   0.73750   0.74300   0.00000  Uiso   1.00
C39    C     0.26590   0.76250   1.11010   0.00000  Uiso   1.00
H17    H     0.59740   0.96390   0.97800   0.00000  Uiso   1.00
H18    H     0.58190   0.90960   1.31510   0.00000  Uiso   1.00
H19    H     0.64020   0.86960   1.34750   0.00000  Uiso   1.00
H20    H     0.62570   0.82980   0.72890   0.00000  Uiso   1.00
H21    H     0.56730   0.86970   0.69840   0.00000  Uiso   1.00
H22    H     0.68730   0.82370   1.20970   0.00000  Uiso   1.00
H23    H     0.22190   0.72790   0.60050   0.00000  Uiso   1.00
H24    H     0.27800   0.77100   1.25410   0.00000  Uiso   1.00
N3     N     0.68510   0.80090   0.91760   0.00000  Uiso   1.00
C40    C     0.03530   0.54260   0.98620   0.00000  Uiso   1.00
C41    C     0.06980   0.47850   0.98270   0.00000  Uiso   1.00
C42    C     0.03500   0.41600   0.98790   0.00000  Uiso   1.00
C43    C     0.07070   0.39270   1.00400   0.00000  Uiso   1.00
C44    C     0.09150   0.39240   1.18650   0.00000  Uiso   1.00
C45    C     0.12460   0.36960   1.20480   0.00000  Uiso   1.00
C46    C     0.13750   0.34670   1.04090   0.00000  Uiso   1.00
C47    C     0.11660   0.34710   0.85770   0.00000  Uiso   1.00
C48    C     0.08330   0.36980   0.83990   0.00000  Uiso   1.00
C49    C     0.17230   0.32250   1.06570   0.00000  Uiso   1.00
C50    C     0.71810   0.22450   0.92580   0.00000  Uiso   1.00
C51    C     0.73410   0.23750   0.74300   0.00000  Uiso   1.00
C52    C     0.76590   0.26250   1.11010   0.00000  Uiso   1.00
H25    H     0.09740   0.46390   0.97800   0.00000  Uiso   1.00
H26    H     0.08190   0.40960   1.31510   0.00000  Uiso   1.00
H27    H     0.14020   0.36960   1.34750   0.00000  Uiso   1.00
H28    H     0.12570   0.32980   0.72890   0.00000  Uiso   1.00
H29    H     0.06730   0.36970   0.69840   0.00000  Uiso   1.00
H30    H     0.18730   0.32370   1.20970   0.00000  Uiso   1.00
H31    H     0.72190   0.22790   0.60050   0.00000  Uiso   1.00
H32    H     0.77800   0.27100   1.25410   0.00000  Uiso   1.00
N4     N     0.18510   0.30090   0.91760   0.00000  Uiso   1.00
C53    C     0.46470   0.04260   0.98620   0.00000  Uiso   1.00
C54    C     0.43020   0.97850   0.98270   0.00000  Uiso   1.00
C55    C     0.46500   0.91600   0.98790   0.00000  Uiso   1.00
C56    C     0.42930   0.89270   1.00400   0.00000  Uiso   1.00
C57    C     0.40850   0.89240   1.18650   0.00000  Uiso   1.00
C58    C     0.37540   0.86960   1.20480   0.00000  Uiso   1.00
C59    C     0.36250   0.84670   1.04090   0.00000  Uiso   1.00
C60    C     0.38340   0.84710   0.85770   0.00000  Uiso   1.00
C61    C     0.41670   0.86980   0.83990   0.00000  Uiso   1.00
C62    C     0.32770   0.82250   1.06570   0.00000  Uiso   1.00
C63    C     0.78190   0.72450   0.92580   0.00000  Uiso   1.00
C64    C     0.76590   0.73750   0.74300   0.00000  Uiso   1.00
C65    C     0.73410   0.76250   1.11010   0.00000  Uiso   1.00
H33    H     0.40260   0.96390   0.97800   0.00000  Uiso   1.00
H34    H     0.41810   0.90960   1.31510   0.00000  Uiso   1.00
H35    H     0.35980   0.86960   1.34750   0.00000  Uiso   1.00
H36    H     0.37430   0.82980   0.72890   0.00000  Uiso   1.00
H37    H     0.43270   0.86970   0.69840   0.00000  Uiso   1.00
H38    H     0.31270   0.82370   1.20970   0.00000  Uiso   1.00
H39    H     0.77810   0.72790   0.60050   0.00000  Uiso   1.00
H40    H     0.72200   0.77100   1.25410   0.00000  Uiso   1.00
N5     N     0.31490   0.80090   0.91760   0.00000  Uiso   1.00
C66    C     0.96470   0.54260   0.98620   0.00000  Uiso   1.00
C67    C     0.93020   0.47850   0.98270   0.00000  Uiso   1.00
C68    C     0.96500   0.41600   0.98790   0.00000  Uiso   1.00
C69    C     0.92930   0.39270   1.00400   0.00000  Uiso   1.00
C70    C     0.90850   0.39240   1.18650   0.00000  Uiso   1.00
C71    C     0.87540   0.36960   1.20480   0.00000  Uiso   1.00
C72    C     0.86250   0.34670   1.04090   0.00000  Uiso   1.00
C73    C     0.88340   0.34710   0.85770   0.00000  Uiso   1.00
C74    C     0.91670   0.36980   0.83990   0.00000  Uiso   1.00
C75    C     0.82770   0.32250   1.06570   0.00000  Uiso   1.00
C76    C     0.28190   0.22450   0.92580   0.00000  Uiso   1.00
C77    C     0.26590   0.23750   0.74300   0.00000  Uiso   1.00
C78    C     0.23410   0.26250   1.11010   0.00000  Uiso   1.00
H41    H     0.90260   0.46390   0.97800   0.00000  Uiso   1.00
H42    H     0.91810   0.40960   1.31510   0.00000  Uiso   1.00
H43    H     0.85980   0.36960   1.34750   0.00000  Uiso   1.00
H44    H     0.87430   0.32980   0.72890   0.00000  Uiso   1.00
H45    H     0.93270   0.36970   0.69840   0.00000  Uiso   1.00
H46    H     0.81270   0.32370   1.20970   0.00000  Uiso   1.00
H47    H     0.27810   0.22790   0.60050   0.00000  Uiso   1.00
H48    H     0.22200   0.27100   1.25410   0.00000  Uiso   1.00
N6     N     0.81490   0.30090   0.91760   0.00000  Uiso   1.00
C79    C     0.53530   0.95740   0.98620   0.00000  Uiso   1.00
C80    C     0.56980   0.02150   0.98270   0.00000  Uiso   1.00
C81    C     0.53500   0.08400   0.98790   0.00000  Uiso   1.00
C82    C     0.57070   0.10730   1.00400   0.00000  Uiso   1.00
C83    C     0.59150   0.10760   1.18650   0.00000  Uiso   1.00
C84    C     0.62460   0.13040   1.20480   0.00000  Uiso   1.00
C85    C     0.63750   0.15330   1.04090   0.00000  Uiso   1.00
C86    C     0.61660   0.15290   0.85770   0.00000  Uiso   1.00
C87    C     0.58330   0.13020   0.83990   0.00000  Uiso   1.00
C88    C     0.67230   0.17750   1.06570   0.00000  Uiso   1.00
C89    C     0.21810   0.27550   0.92580   0.00000  Uiso   1.00
C90    C     0.23410   0.26250   0.74300   0.00000  Uiso   1.00
C91    C     0.26590   0.23750   1.11010   0.00000  Uiso   1.00
H49    H     0.59740   0.03610   0.97800   0.00000  Uiso   1.00
H50    H     0.58190   0.09040   1.31510   0.00000  Uiso   1.00
H51    H     0.64020   0.13040   1.34750   0.00000  Uiso   1.00
H52    H     0.62570   0.17020   0.72890   0.00000  Uiso   1.00
H53    H     0.56730   0.13030   0.69840   0.00000  Uiso   1.00
H54    H     0.68730   0.17630   1.20970   0.00000  Uiso   1.00
H55    H     0.22190   0.27210   0.60050   0.00000  Uiso   1.00
H56    H     0.27800   0.22900   1.25410   0.00000  Uiso   1.00
N7     N     0.68510   0.19910   0.91760   0.00000  Uiso   1.00
C92    C     0.03530   0.45740   0.98620   0.00000  Uiso   1.00
C93    C     0.06980   0.52150   0.98270   0.00000  Uiso   1.00
C94    C     0.03500   0.58400   0.98790   0.00000  Uiso   1.00
C95    C     0.07070   0.60730   1.00400   0.00000  Uiso   1.00
C96    C     0.09150   0.60760   1.18650   0.00000  Uiso   1.00
C97    C     0.12460   0.63040   1.20480   0.00000  Uiso   1.00
C98    C     0.13750   0.65330   1.04090   0.00000  Uiso   1.00
C99    C     0.11660   0.65290   0.85770   0.00000  Uiso   1.00
C100   C     0.08330   0.63020   0.83990   0.00000  Uiso   1.00
C101   C     0.17230   0.67750   1.06570   0.00000  Uiso   1.00
C102   C     0.71810   0.77550   0.92580   0.00000  Uiso   1.00
C103   C     0.73410   0.76250   0.74300   0.00000  Uiso   1.00
C104   C     0.76590   0.73750   1.11010   0.00000  Uiso   1.00
H57    H     0.09740   0.53610   0.97800   0.00000  Uiso   1.00
H58    H     0.08190   0.59040   1.31510   0.00000  Uiso   1.00
H59    H     0.14020   0.63040   1.34750   0.00000  Uiso   1.00
H60    H     0.12570   0.67020   0.72890   0.00000  Uiso   1.00
H61    H     0.06730   0.63030   0.69840   0.00000  Uiso   1.00
H62    H     0.18730   0.67630   1.20970   0.00000  Uiso   1.00
H63    H     0.72190   0.77210   0.60050   0.00000  Uiso   1.00
H64    H     0.77800   0.72900   1.25410   0.00000  Uiso   1.00
N8     N     0.18510   0.69910   0.91760   0.00000  Uiso   1.00
C105   C     0.50000   0.10410   0.98580   0.00000  Uiso   1.00
C106   C     0.50000   0.97810   0.98540   0.00000  Uiso   1.00
H65    H     0.50000   0.13590   0.99030   0.00000  Uiso   1.00
C107   C     0.00000   0.60410   0.98580   0.00000  Uiso   1.00
C108   C     0.00000   0.47810   0.98540   0.00000  Uiso   1.00
H66    H     0.00000   0.63590   0.99030   0.00000  Uiso   1.00
C109   C     0.50000   0.89590   0.98580   0.00000  Uiso   1.00
C110   C     0.50000   0.02190   0.98540   0.00000  Uiso   1.00
H67    H     0.50000   0.86410   0.99030   0.00000  Uiso   1.00
C111   C     0.00000   0.39590   0.98580   0.00000  Uiso   1.00
C112   C     0.00000   0.52190   0.98540   0.00000  Uiso   1.00
H68    H     0.00000   0.36410   0.99030   0.00000  Uiso   1.00
loop_
_geom_bond_atom_site_label_1
_geom_bond_atom_site_label_2
_geom_bond_distance
_geom_bond_site_symmetry_2
_ccdc_geom_bond_type
C1     C106    1.417   .     S
C1     C54     1.400   .     S
C1     C55     1.414   .     S
C2     H1      1.082   .     S
C2     C53     1.400   .     S
C3     C105    1.398   .     S
C3     C4      1.479   .     S
C3     C53     1.414   .     S
C4     C9      1.403   .     S
C4     C5      1.402   .     S
C5     C6      1.395   .     S
C5     H2      1.083   .     S
C6     C7      1.406   .     S
C6     H3      1.084   .     S
C7     C8      1.407   .     S
C7     C10     1.475   .     S
C8     C9      1.399   .     S
C8     H4      1.080   .     S
C9     H5      1.085   .     S
C10    N1      1.301   .     S
C10    H6      1.082   .     S
C11    N6      1.440   .     S
C11    C12     1.398   .     S
C11    C52     1.406   .     S
C12    H7      1.080   .     S
C12    C51     1.397   .     S
C13    H8      1.076   .     S
C13    C52     1.397   .     S
C13    C50     1.406   .     S
N1     C76     1.440   .     S
C14    C68     1.414   .     S
C14    C67     1.400   .     S
C15    C66     1.400   .     S
C15    H9      1.082   .     S
C15    C67     1.469   .     S
C16    C17     1.479   .     S
C16    C66     1.414   .     S
C17    C22     1.403   .     S
C17    C18     1.402   .     S
C18    H10     1.083   .     S
C18    C19     1.395   .     S
C19    C20     1.406   .     S
C19    H11     1.084   .     S
C20    C21     1.407   .     S
C20    C23     1.475   .     S
C21    C22     1.399   .     S
C21    H12     1.080   .     S
C22    H13     1.085   .     S
C23    N2      1.301   .     S
C23    H14     1.082   .     S
C24    N5      1.440   .     S
C24    C25     1.398   .     S
C24    C39     1.406   .     S
C25    H15     1.080   .     S
C25    C38     1.397   .     S
C26    H16     1.076   .     S
C26    C39     1.397   .     S
C26    C37     1.406   .     S
N2     C63     1.440   .     S
C27    C110    1.417   .     S
C27    C80     1.400   .     S
C27    C81     1.414   .     S
C28    H17     1.082   .     S
C28    C79     1.400   .     S
C29    C109    1.398   .     S
C29    C30     1.479   .     S
C29    C79     1.414   .     S
C30    C35     1.403   .     S
C30    C31     1.402   .     S
C31    H18     1.083   .     S
C31    C32     1.395   .     S
C32    C33     1.406   .     S
C32    H19     1.084   .     S
C33    C34     1.407   .     S
C33    C36     1.475   .     S
C34    C35     1.399   .     S
C34    H20     1.080   .     S
C35    H21     1.085   .     S
C36    N3      1.301   .     S
C36    H22     1.082   .     S
C37    N8      1.440   .     S
C37    C38     1.398   .     S
C38    H23     1.080   .     S
C39    H24     1.076   .     S
N3     C102    1.440   .     S
C40    C112    1.417   .     S
C40    C93     1.400   .     S
C40    C94     1.414   .     S
C41    C93     1.469   .     S
C41    H25     1.082   .     S
C41    C92     1.400   .     S
C42    C92     1.414   .     S
C42    C111    1.398   .     S
C42    C43     1.479   .     S
C43    C48     1.403   .     S
C43    C44     1.402   .     S
C44    H26     1.083   .     S
C44    C45     1.395   .     S
C45    C46     1.406   .     S
C45    H27     1.084   .     S
C46    C47     1.407   .     S
C46    C49     1.475   .     S
C47    C48     1.399   .     S
C47    H28     1.080   .     S
C48    H29     1.085   .     S
C49    N4      1.301   .     S
C49    H30     1.082   .     S
C50    N7      1.440   .     S
C50    C51     1.398   .     S
C51    H31     1.080   .     S
C52    H32     1.076   .     S
N4     C89     1.440   .     S
C53    C110    1.417   .     S
C54    H33     1.082   .     S
C55    C109    1.398   .     S
C55    C56     1.479   .     S
C56    C61     1.403   .     S
C56    C57     1.402   .     S
C57    H34     1.083   .     S
C57    C58     1.395   .     S
C58    C59     1.406   .     S
C58    H35     1.084   .     S
C59    C60     1.407   .     S
C59    C62     1.475   .     S
C60    C61     1.399   .     S
C60    H36     1.080   .     S
C61    H37     1.085   .     S
C62    N5      1.301   .     S
C62    H38     1.082   .     S
C63    C64     1.398   .     S
C63    C104    1.406   .     S
C64    H39     1.080   .     S
C64    C103    1.397   .     S
C65    H40     1.076   .     S
C65    C104    1.397   .     S
C65    C102    1.406   .     S
C67    H41     1.082   .     S
C68    C69     1.479   .     S
C69    C74     1.403   .     S
C69    C70     1.402   .     S
C70    C71     1.395   .     S
C70    H42     1.083   .     S
C71    C72     1.406   .     S
C71    H43     1.084   .     S
C72    C75     1.475   .     S
C72    C73     1.407   .     S
C73    C74     1.399   .     S
C73    H44     1.080   .     S
C74    H45     1.085   .     S
C75    N6      1.301   .     S
C75    H46     1.082   .     S
C76    C77     1.398   .     S
C76    C91     1.406   .     S
C77    H47     1.080   .     S
C77    C90     1.397   .     S
C78    H48     1.076   .     S
C78    C91     1.397   .     S
C78    C89     1.406   .     S
C79    C106    1.417   .     S
C80    H49     1.082   .     S
C81    C105    1.398   .     S
C81    C82     1.479   .     S
C82    C87     1.403   .     S
C82    C83     1.402   .     S
C83    C84     1.395   .     S
C83    H50     1.083   .     S
C84    C85     1.406   .     S
C84    H51     1.084   .     S
C85    C86     1.407   .     S
C85    C88     1.475   .     S
C86    C87     1.399   .     S
C86    H52     1.080   .     S
C87    H53     1.085   .     S
C88    N7      1.301   .     S
C88    H54     1.082   .     S
C89    C90     1.398   .     S
C90    H55     1.080   .     S
C91    H56     1.076   .     S
C92    C108    1.417   .     S
C93    H57     1.082   .     S
C94    C107    1.398   .     S
C94    C95     1.479   .     S
C95    C100    1.403   .     S
C95    C96     1.402   .     S
C96    H58     1.083   .     S
C96    C97     1.395   .     S
C97    C98     1.406   .     S
C97    H59     1.084   .     S
C98    C99     1.407   .     S
C98    C101    1.475   .     S
C99    C100    1.399   .     S
C99    H60     1.080   .     S
C100   H61     1.085   .     S
C101   N8      1.301   .     S
C101   H62     1.082   .     S
C102   C103    1.398   .     S
C103   H63     1.080   .     S
C104   H64     1.076   .     S
C105   H65     1.087   .     S
C107   H66     1.087   .     S
C108   C112    1.496   .     S
C109   H67     1.087   .     S
C111   H68     1.087   .     S
