data_ILCOF-1-AB
_audit_creation_date              2016-12-13
_audit_creation_method            'Materials Studio'
_symmetry_space_group_name_H-M    'P1'
_symmetry_Int_Tables_number       1
_symmetry_cell_setting            triclinic
loop_
_symmetry_equiv_pos_as_xyz
  x,y,z
_cell_length_a                    34.2435
_cell_length_b                    34.6947
_cell_length_c                    12.5394
_cell_angle_alpha                 90.0000
_cell_angle_beta                  90.0000
_cell_angle_gamma                 90.0000
loop_
_atom_site_label
_atom_site_type_symbol
_atom_site_fract_x
_atom_site_fract_y
_atom_site_fract_z
_atom_site_U_iso_or_equiv
_atom_site_adp_type
_atom_site_occupancy
C1     C     0.46412   0.45908   0.49397   0.00000  Uiso   1.00
C2     C     0.42896   0.52005   0.49036   0.00000  Uiso   1.00
C3     C     0.46438   0.58173   0.49511   0.00000  Uiso   1.00
C4     C     0.42814   0.60487   0.50206   0.00000  Uiso   1.00
C5     C     0.40462   0.60286   0.59347   0.00000  Uiso   1.00
C6     C     0.37115   0.62569   0.60190   0.00000  Uiso   1.00
C7     C     0.36077   0.65100   0.51931   0.00000  Uiso   1.00
C8     C     0.38445   0.65304   0.42778   0.00000  Uiso   1.00
C9     C     0.41799   0.63025   0.41955   0.00000  Uiso   1.00
C10    C     0.32569   0.67537   0.53128   0.00000  Uiso   1.00
C11    C     0.78153   0.77618   0.45887   0.00000  Uiso   1.00
C12    C     0.76575   0.76283   0.36279   0.00000  Uiso   1.00
C13    C     0.73432   0.73710   0.55572   0.00000  Uiso   1.00
H1     H     0.40100   0.53451   0.48634   0.00000  Uiso   1.00
H2     H     0.41238   0.58379   0.65851   0.00000  Uiso   1.00
H3     H     0.35348   0.62376   0.67335   0.00000  Uiso   1.00
H4     H     0.37728   0.67243   0.36300   0.00000  Uiso   1.00
H5     H     0.43608   0.63237   0.34891   0.00000  Uiso   1.00
H6     H     0.30925   0.67342   0.60478   0.00000  Uiso   1.00
H7     H     0.77776   0.77266   0.28772   0.00000  Uiso   1.00
H8     H     0.72237   0.72815   0.63148   0.00000  Uiso   1.00
N1     N     0.31436   0.69803   0.45477   0.00000  Uiso   1.00
C14    C     0.46412   0.95908   0.99397   0.00000  Uiso   1.00
C15    C     0.42896   0.02005   0.99036   0.00000  Uiso   1.00
C16    C     0.46438   0.08173   0.99511   0.00000  Uiso   1.00
C17    C     0.42814   0.10487   1.00206   0.00000  Uiso   1.00
C18    C     0.40462   0.10286   1.09347   0.00000  Uiso   1.00
C19    C     0.37115   0.12569   1.10190   0.00000  Uiso   1.00
C20    C     0.36077   0.15100   1.01931   0.00000  Uiso   1.00
C21    C     0.38445   0.15304   0.92778   0.00000  Uiso   1.00
C22    C     0.41799   0.13025   0.91955   0.00000  Uiso   1.00
C23    C     0.32569   0.17537   1.03128   0.00000  Uiso   1.00
C24    C     0.78153   0.27618   0.95887   0.00000  Uiso   1.00
C25    C     0.76575   0.26283   0.86279   0.00000  Uiso   1.00
C26    C     0.73432   0.23710   1.05572   0.00000  Uiso   1.00
H9     H     0.40100   0.03451   0.98634   0.00000  Uiso   1.00
H10    H     0.41238   0.08379   1.15851   0.00000  Uiso   1.00
H11    H     0.35348   0.12376   1.17335   0.00000  Uiso   1.00
H12    H     0.37728   0.17243   0.86300   0.00000  Uiso   1.00
H13    H     0.43608   0.13237   0.84891   0.00000  Uiso   1.00
H14    H     0.30925   0.17342   1.10478   0.00000  Uiso   1.00
H15    H     0.77776   0.27266   0.78772   0.00000  Uiso   1.00
H16    H     0.72237   0.22815   1.13148   0.00000  Uiso   1.00
N2     N     0.31436   0.19803   0.95477   0.00000  Uiso   1.00
C27    C     0.96412   0.45908   0.99397   0.00000  Uiso   1.00
C28    C     0.92896   0.52005   0.99036   0.00000  Uiso   1.00
C29    C     0.96438   0.58173   0.99511   0.00000  Uiso   1.00
C30    C     0.92814   0.60487   1.00206   0.00000  Uiso   1.00
C31    C     0.90462   0.60286   1.09347   0.00000  Uiso   1.00
C32    C     0.87115   0.62569   1.10190   0.00000  Uiso   1.00
C33    C     0.86077   0.65100   1.01931   0.00000  Uiso   1.00
C34    C     0.88445   0.65304   0.92778   0.00000  Uiso   1.00
C35    C     0.91799   0.63025   0.91955   0.00000  Uiso   1.00
C36    C     0.82569   0.67537   1.03128   0.00000  Uiso   1.00
C37    C     0.28153   0.77618   0.95887   0.00000  Uiso   1.00
C38    C     0.26575   0.76283   0.86279   0.00000  Uiso   1.00
C39    C     0.23432   0.73710   1.05572   0.00000  Uiso   1.00
H17    H     0.90100   0.53451   0.98634   0.00000  Uiso   1.00
H18    H     0.91238   0.58379   1.15851   0.00000  Uiso   1.00
H19    H     0.85348   0.62376   1.17335   0.00000  Uiso   1.00
H20    H     0.87728   0.67243   0.86300   0.00000  Uiso   1.00
H21    H     0.93608   0.63237   0.84891   0.00000  Uiso   1.00
H22    H     0.80925   0.67342   1.10478   0.00000  Uiso   1.00
H23    H     0.27776   0.77266   0.78772   0.00000  Uiso   1.00
H24    H     0.22237   0.72815   1.13148   0.00000  Uiso   1.00
N3     N     0.81436   0.69803   0.95477   0.00000  Uiso   1.00
C40    C     0.96412   0.95908   0.49397   0.00000  Uiso   1.00
C41    C     0.92896   0.02005   0.49036   0.00000  Uiso   1.00
C42    C     0.96438   0.08173   0.49511   0.00000  Uiso   1.00
C43    C     0.92814   0.10487   0.50206   0.00000  Uiso   1.00
C44    C     0.90462   0.10286   0.59347   0.00000  Uiso   1.00
C45    C     0.87115   0.12569   0.60190   0.00000  Uiso   1.00
C46    C     0.86077   0.15100   0.51931   0.00000  Uiso   1.00
C47    C     0.88445   0.15304   0.42778   0.00000  Uiso   1.00
C48    C     0.91799   0.13025   0.41955   0.00000  Uiso   1.00
C49    C     0.82569   0.17537   0.53128   0.00000  Uiso   1.00
C50    C     0.28153   0.27618   0.45887   0.00000  Uiso   1.00
C51    C     0.26575   0.26283   0.36279   0.00000  Uiso   1.00
C52    C     0.23432   0.23710   0.55572   0.00000  Uiso   1.00
H25    H     0.90100   0.03451   0.48634   0.00000  Uiso   1.00
H26    H     0.91238   0.08379   0.65851   0.00000  Uiso   1.00
H27    H     0.85348   0.12376   0.67335   0.00000  Uiso   1.00
H28    H     0.87728   0.17243   0.36300   0.00000  Uiso   1.00
H29    H     0.93608   0.13237   0.34891   0.00000  Uiso   1.00
H30    H     0.80925   0.17342   0.60478   0.00000  Uiso   1.00
H31    H     0.27776   0.27266   0.28772   0.00000  Uiso   1.00
H32    H     0.22237   0.22815   0.63148   0.00000  Uiso   1.00
N4     N     0.81436   0.19803   0.45477   0.00000  Uiso   1.00
C53    C     0.53588   0.54092   0.49397   0.00000  Uiso   1.00
C54    C     0.57104   0.47995   0.49036   0.00000  Uiso   1.00
C55    C     0.53562   0.41827   0.49511   0.00000  Uiso   1.00
C56    C     0.57186   0.39513   0.50206   0.00000  Uiso   1.00
C57    C     0.59538   0.39714   0.59347   0.00000  Uiso   1.00
C58    C     0.62885   0.37431   0.60190   0.00000  Uiso   1.00
C59    C     0.63923   0.34900   0.51931   0.00000  Uiso   1.00
C60    C     0.61555   0.34696   0.42778   0.00000  Uiso   1.00
C61    C     0.58201   0.36975   0.41955   0.00000  Uiso   1.00
C62    C     0.67431   0.32463   0.53128   0.00000  Uiso   1.00
C63    C     0.21847   0.22382   0.45887   0.00000  Uiso   1.00
C64    C     0.23425   0.23717   0.36279   0.00000  Uiso   1.00
C65    C     0.26568   0.26290   0.55572   0.00000  Uiso   1.00
H33    H     0.59900   0.46549   0.48634   0.00000  Uiso   1.00
H34    H     0.58762   0.41621   0.65851   0.00000  Uiso   1.00
H35    H     0.64652   0.37624   0.67335   0.00000  Uiso   1.00
H36    H     0.62272   0.32757   0.36300   0.00000  Uiso   1.00
H37    H     0.56392   0.36763   0.34891   0.00000  Uiso   1.00
H38    H     0.69075   0.32658   0.60478   0.00000  Uiso   1.00
H39    H     0.22224   0.22734   0.28772   0.00000  Uiso   1.00
H40    H     0.27763   0.27185   0.63148   0.00000  Uiso   1.00
N5     N     0.68564   0.30197   0.45477   0.00000  Uiso   1.00
C66    C     0.53588   0.04092   0.99397   0.00000  Uiso   1.00
C67    C     0.57104   0.97995   0.99036   0.00000  Uiso   1.00
C68    C     0.53562   0.91827   0.99511   0.00000  Uiso   1.00
C69    C     0.57186   0.89513   1.00206   0.00000  Uiso   1.00
C70    C     0.59538   0.89714   1.09347   0.00000  Uiso   1.00
C71    C     0.62885   0.87431   1.10190   0.00000  Uiso   1.00
C72    C     0.63923   0.84900   1.01931   0.00000  Uiso   1.00
C73    C     0.61555   0.84696   0.92778   0.00000  Uiso   1.00
C74    C     0.58201   0.86975   0.91955   0.00000  Uiso   1.00
C75    C     0.67431   0.82463   1.03128   0.00000  Uiso   1.00
C76    C     0.21847   0.72382   0.95887   0.00000  Uiso   1.00
C77    C     0.23425   0.73717   0.86279   0.00000  Uiso   1.00
C78    C     0.26568   0.76290   1.05572   0.00000  Uiso   1.00
H41    H     0.59900   0.96549   0.98634   0.00000  Uiso   1.00
H42    H     0.58762   0.91621   1.15851   0.00000  Uiso   1.00
H43    H     0.64652   0.87624   1.17335   0.00000  Uiso   1.00
H44    H     0.62272   0.82757   0.86300   0.00000  Uiso   1.00
H45    H     0.56392   0.86763   0.84891   0.00000  Uiso   1.00
H46    H     0.69075   0.82658   1.10478   0.00000  Uiso   1.00
H47    H     0.22224   0.72734   0.78772   0.00000  Uiso   1.00
H48    H     0.27763   0.77185   1.13148   0.00000  Uiso   1.00
N6     N     0.68564   0.80197   0.95477   0.00000  Uiso   1.00
C79    C     0.03588   0.54092   0.99397   0.00000  Uiso   1.00
C80    C     0.07104   0.47995   0.99036   0.00000  Uiso   1.00
C81    C     0.03562   0.41827   0.99511   0.00000  Uiso   1.00
C82    C     0.07186   0.39513   1.00206   0.00000  Uiso   1.00
C83    C     0.09538   0.39714   1.09347   0.00000  Uiso   1.00
C84    C     0.12885   0.37431   1.10190   0.00000  Uiso   1.00
C85    C     0.13923   0.34900   1.01931   0.00000  Uiso   1.00
C86    C     0.11555   0.34696   0.92778   0.00000  Uiso   1.00
C87    C     0.08201   0.36975   0.91955   0.00000  Uiso   1.00
C88    C     0.17431   0.32463   1.03128   0.00000  Uiso   1.00
C89    C     0.71847   0.22382   0.95887   0.00000  Uiso   1.00
C90    C     0.73425   0.23717   0.86279   0.00000  Uiso   1.00
C91    C     0.76568   0.26290   1.05572   0.00000  Uiso   1.00
H49    H     0.09900   0.46549   0.98634   0.00000  Uiso   1.00
H50    H     0.08762   0.41621   1.15851   0.00000  Uiso   1.00
H51    H     0.14652   0.37624   1.17335   0.00000  Uiso   1.00
H52    H     0.12272   0.32757   0.86300   0.00000  Uiso   1.00
H53    H     0.06392   0.36763   0.84891   0.00000  Uiso   1.00
H54    H     0.19075   0.32658   1.10478   0.00000  Uiso   1.00
H55    H     0.72224   0.22734   0.78772   0.00000  Uiso   1.00
H56    H     0.77763   0.27185   1.13148   0.00000  Uiso   1.00
N7     N     0.18564   0.30197   0.95477   0.00000  Uiso   1.00
C92    C     0.03588   0.04092   0.49397   0.00000  Uiso   1.00
C93    C     0.07104   0.97995   0.49036   0.00000  Uiso   1.00
C94    C     0.03562   0.91827   0.49511   0.00000  Uiso   1.00
C95    C     0.07186   0.89513   0.50206   0.00000  Uiso   1.00
C96    C     0.09538   0.89714   0.59347   0.00000  Uiso   1.00
C97    C     0.12885   0.87431   0.60190   0.00000  Uiso   1.00
C98    C     0.13923   0.84900   0.51931   0.00000  Uiso   1.00
C99    C     0.11555   0.84696   0.42778   0.00000  Uiso   1.00
C100   C     0.08201   0.86975   0.41955   0.00000  Uiso   1.00
C101   C     0.17431   0.82463   0.53128   0.00000  Uiso   1.00
C102   C     0.71847   0.72382   0.45887   0.00000  Uiso   1.00
C103   C     0.73425   0.73717   0.36279   0.00000  Uiso   1.00
C104   C     0.76568   0.76290   0.55572   0.00000  Uiso   1.00
H57    H     0.09900   0.96549   0.48634   0.00000  Uiso   1.00
H58    H     0.08762   0.91621   0.65851   0.00000  Uiso   1.00
H59    H     0.14652   0.87624   0.67335   0.00000  Uiso   1.00
H60    H     0.12272   0.82757   0.36300   0.00000  Uiso   1.00
H61    H     0.06392   0.86763   0.34891   0.00000  Uiso   1.00
H62    H     0.19075   0.82658   0.60478   0.00000  Uiso   1.00
H63    H     0.72224   0.72734   0.28772   0.00000  Uiso   1.00
H64    H     0.77763   0.77185   0.63148   0.00000  Uiso   1.00
N8     N     0.18564   0.80197   0.45477   0.00000  Uiso   1.00
C105   C     0.46412   0.54092   0.49397   0.00000  Uiso   1.00
C106   C     0.42896   0.47995   0.49036   0.00000  Uiso   1.00
C107   C     0.46438   0.41827   0.49511   0.00000  Uiso   1.00
C108   C     0.42814   0.39513   0.50206   0.00000  Uiso   1.00
C109   C     0.40462   0.39714   0.59347   0.00000  Uiso   1.00
C110   C     0.37115   0.37431   0.60190   0.00000  Uiso   1.00
C111   C     0.36077   0.34900   0.51931   0.00000  Uiso   1.00
C112   C     0.38445   0.34696   0.42778   0.00000  Uiso   1.00
C113   C     0.41799   0.36975   0.41955   0.00000  Uiso   1.00
C114   C     0.32569   0.32463   0.53128   0.00000  Uiso   1.00
C115   C     0.78153   0.22382   0.45887   0.00000  Uiso   1.00
C116   C     0.76575   0.23717   0.36279   0.00000  Uiso   1.00
C117   C     0.73432   0.26290   0.55572   0.00000  Uiso   1.00
H65    H     0.40100   0.46549   0.48634   0.00000  Uiso   1.00
H66    H     0.41238   0.41621   0.65851   0.00000  Uiso   1.00
H67    H     0.35348   0.37624   0.67335   0.00000  Uiso   1.00
H68    H     0.37728   0.32757   0.36300   0.00000  Uiso   1.00
H69    H     0.43608   0.36763   0.34891   0.00000  Uiso   1.00
H70    H     0.30925   0.32658   0.60478   0.00000  Uiso   1.00
H71    H     0.77776   0.22734   0.28772   0.00000  Uiso   1.00
H72    H     0.72237   0.27185   0.63148   0.00000  Uiso   1.00
N9     N     0.31436   0.30197   0.45477   0.00000  Uiso   1.00
C118   C     0.46412   0.04092   0.99397   0.00000  Uiso   1.00
C119   C     0.42896   0.97995   0.99036   0.00000  Uiso   1.00
C120   C     0.46438   0.91827   0.99511   0.00000  Uiso   1.00
C121   C     0.42814   0.89513   1.00206   0.00000  Uiso   1.00
C122   C     0.40462   0.89714   1.09347   0.00000  Uiso   1.00
C123   C     0.37115   0.87431   1.10190   0.00000  Uiso   1.00
C124   C     0.36077   0.84900   1.01931   0.00000  Uiso   1.00
C125   C     0.38445   0.84696   0.92778   0.00000  Uiso   1.00
C126   C     0.41799   0.86975   0.91955   0.00000  Uiso   1.00
C127   C     0.32569   0.82463   1.03128   0.00000  Uiso   1.00
C128   C     0.78153   0.72382   0.95887   0.00000  Uiso   1.00
C129   C     0.76575   0.73717   0.86279   0.00000  Uiso   1.00
C130   C     0.73432   0.76290   1.05572   0.00000  Uiso   1.00
H73    H     0.40100   0.96549   0.98634   0.00000  Uiso   1.00
H74    H     0.41238   0.91621   1.15851   0.00000  Uiso   1.00
H75    H     0.35348   0.87624   1.17335   0.00000  Uiso   1.00
H76    H     0.37728   0.82757   0.86300   0.00000  Uiso   1.00
H77    H     0.43608   0.86763   0.84891   0.00000  Uiso   1.00
H78    H     0.30925   0.82658   1.10478   0.00000  Uiso   1.00
H79    H     0.77776   0.72734   0.78772   0.00000  Uiso   1.00
H80    H     0.72237   0.77185   1.13148   0.00000  Uiso   1.00
N10    N     0.31436   0.80197   0.95477   0.00000  Uiso   1.00
C131   C     0.96412   0.54092   0.99397   0.00000  Uiso   1.00
C132   C     0.92896   0.47995   0.99036   0.00000  Uiso   1.00
C133   C     0.96438   0.41827   0.99511   0.00000  Uiso   1.00
C134   C     0.92814   0.39513   1.00206   0.00000  Uiso   1.00
C135   C     0.90462   0.39714   1.09347   0.00000  Uiso   1.00
C136   C     0.87115   0.37431   1.10190   0.00000  Uiso   1.00
C137   C     0.86077   0.34900   1.01931   0.00000  Uiso   1.00
C138   C     0.88445   0.34696   0.92778   0.00000  Uiso   1.00
C139   C     0.91799   0.36975   0.91955   0.00000  Uiso   1.00
C140   C     0.82569   0.32463   1.03128   0.00000  Uiso   1.00
C141   C     0.28153   0.22382   0.95887   0.00000  Uiso   1.00
C142   C     0.26575   0.23717   0.86279   0.00000  Uiso   1.00
C143   C     0.23432   0.26290   1.05572   0.00000  Uiso   1.00
H81    H     0.90100   0.46549   0.98634   0.00000  Uiso   1.00
H82    H     0.91238   0.41621   1.15851   0.00000  Uiso   1.00
H83    H     0.85348   0.37624   1.17335   0.00000  Uiso   1.00
H84    H     0.87728   0.32757   0.86300   0.00000  Uiso   1.00
H85    H     0.93608   0.36763   0.84891   0.00000  Uiso   1.00
H86    H     0.80925   0.32658   1.10478   0.00000  Uiso   1.00
H87    H     0.27776   0.22734   0.78772   0.00000  Uiso   1.00
H88    H     0.22237   0.27185   1.13148   0.00000  Uiso   1.00
N11    N     0.81436   0.30197   0.95477   0.00000  Uiso   1.00
C144   C     0.96412   0.04092   0.49397   0.00000  Uiso   1.00
C145   C     0.92896   0.97995   0.49036   0.00000  Uiso   1.00
C146   C     0.96438   0.91827   0.49511   0.00000  Uiso   1.00
C147   C     0.92814   0.89513   0.50206   0.00000  Uiso   1.00
C148   C     0.90462   0.89714   0.59347   0.00000  Uiso   1.00
C149   C     0.87115   0.87431   0.60190   0.00000  Uiso   1.00
C150   C     0.86077   0.84900   0.51931   0.00000  Uiso   1.00
C151   C     0.88445   0.84696   0.42778   0.00000  Uiso   1.00
C152   C     0.91799   0.86975   0.41955   0.00000  Uiso   1.00
C153   C     0.82569   0.82463   0.53128   0.00000  Uiso   1.00
C154   C     0.28153   0.72382   0.45887   0.00000  Uiso   1.00
C155   C     0.26575   0.73717   0.36279   0.00000  Uiso   1.00
C156   C     0.23432   0.76290   0.55572   0.00000  Uiso   1.00
H89    H     0.90100   0.96549   0.48634   0.00000  Uiso   1.00
H90    H     0.91238   0.91621   0.65851   0.00000  Uiso   1.00
H91    H     0.85348   0.87624   0.67335   0.00000  Uiso   1.00
H92    H     0.87728   0.82757   0.36300   0.00000  Uiso   1.00
H93    H     0.93608   0.86763   0.34891   0.00000  Uiso   1.00
H94    H     0.80925   0.82658   0.60478   0.00000  Uiso   1.00
H95    H     0.27776   0.72734   0.28772   0.00000  Uiso   1.00
H96    H     0.22237   0.77185   0.63148   0.00000  Uiso   1.00
N12    N     0.81436   0.80197   0.45477   0.00000  Uiso   1.00
C157   C     0.53588   0.45908   0.49397   0.00000  Uiso   1.00
C158   C     0.57104   0.52005   0.49036   0.00000  Uiso   1.00
C159   C     0.53562   0.58173   0.49511   0.00000  Uiso   1.00
C160   C     0.57186   0.60487   0.50206   0.00000  Uiso   1.00
C161   C     0.59538   0.60286   0.59347   0.00000  Uiso   1.00
C162   C     0.62885   0.62569   0.60190   0.00000  Uiso   1.00
C163   C     0.63923   0.65100   0.51931   0.00000  Uiso   1.00
C164   C     0.61555   0.65304   0.42778   0.00000  Uiso   1.00
C165   C     0.58201   0.63025   0.41955   0.00000  Uiso   1.00
C166   C     0.67431   0.67537   0.53128   0.00000  Uiso   1.00
C167   C     0.21847   0.77618   0.45887   0.00000  Uiso   1.00
C168   C     0.23425   0.76283   0.36279   0.00000  Uiso   1.00
C169   C     0.26568   0.73710   0.55572   0.00000  Uiso   1.00
H97    H     0.59900   0.53451   0.48634   0.00000  Uiso   1.00
H98    H     0.58762   0.58379   0.65851   0.00000  Uiso   1.00
H99    H     0.64652   0.62376   0.67335   0.00000  Uiso   1.00
H100   H     0.62272   0.67243   0.36300   0.00000  Uiso   1.00
H101   H     0.56392   0.63237   0.34891   0.00000  Uiso   1.00
H102   H     0.69075   0.67342   0.60478   0.00000  Uiso   1.00
H103   H     0.22224   0.77266   0.28772   0.00000  Uiso   1.00
H104   H     0.27763   0.72815   0.63148   0.00000  Uiso   1.00
N13    N     0.68564   0.69803   0.45477   0.00000  Uiso   1.00
C170   C     0.53588   0.95908   0.99397   0.00000  Uiso   1.00
C171   C     0.57104   0.02005   0.99036   0.00000  Uiso   1.00
C172   C     0.53562   0.08173   0.99511   0.00000  Uiso   1.00
C173   C     0.57186   0.10487   1.00206   0.00000  Uiso   1.00
C174   C     0.59538   0.10286   1.09347   0.00000  Uiso   1.00
C175   C     0.62885   0.12569   1.10190   0.00000  Uiso   1.00
C176   C     0.63923   0.15100   1.01931   0.00000  Uiso   1.00
C177   C     0.61555   0.15304   0.92778   0.00000  Uiso   1.00
C178   C     0.58201   0.13025   0.91955   0.00000  Uiso   1.00
C179   C     0.67431   0.17537   1.03128   0.00000  Uiso   1.00
C180   C     0.21847   0.27618   0.95887   0.00000  Uiso   1.00
C181   C     0.23425   0.26283   0.86279   0.00000  Uiso   1.00
C182   C     0.26568   0.23710   1.05572   0.00000  Uiso   1.00
H105   H     0.59900   0.03451   0.98634   0.00000  Uiso   1.00
H106   H     0.58762   0.08379   1.15851   0.00000  Uiso   1.00
H107   H     0.64652   0.12376   1.17335   0.00000  Uiso   1.00
H108   H     0.62272   0.17243   0.86300   0.00000  Uiso   1.00
H109   H     0.56392   0.13237   0.84891   0.00000  Uiso   1.00
H110   H     0.69075   0.17342   1.10478   0.00000  Uiso   1.00
H111   H     0.22224   0.27266   0.78772   0.00000  Uiso   1.00
H112   H     0.27763   0.22815   1.13148   0.00000  Uiso   1.00
N14    N     0.68564   0.19803   0.95477   0.00000  Uiso   1.00
C183   C     0.03588   0.45908   0.99397   0.00000  Uiso   1.00
C184   C     0.07104   0.52005   0.99036   0.00000  Uiso   1.00
C185   C     0.03562   0.58173   0.99511   0.00000  Uiso   1.00
C186   C     0.07186   0.60487   1.00206   0.00000  Uiso   1.00
C187   C     0.09538   0.60286   1.09347   0.00000  Uiso   1.00
C188   C     0.12885   0.62569   1.10190   0.00000  Uiso   1.00
C189   C     0.13923   0.65100   1.01931   0.00000  Uiso   1.00
C190   C     0.11555   0.65304   0.92778   0.00000  Uiso   1.00
C191   C     0.08201   0.63025   0.91955   0.00000  Uiso   1.00
C192   C     0.17431   0.67537   1.03128   0.00000  Uiso   1.00
C193   C     0.71847   0.77618   0.95887   0.00000  Uiso   1.00
C194   C     0.73425   0.76283   0.86279   0.00000  Uiso   1.00
C195   C     0.76568   0.73710   1.05572   0.00000  Uiso   1.00
H113   H     0.09900   0.53451   0.98634   0.00000  Uiso   1.00
H114   H     0.08762   0.58379   1.15851   0.00000  Uiso   1.00
H115   H     0.14652   0.62376   1.17335   0.00000  Uiso   1.00
H116   H     0.12272   0.67243   0.86300   0.00000  Uiso   1.00
H117   H     0.06392   0.63237   0.84891   0.00000  Uiso   1.00
H118   H     0.19075   0.67342   1.10478   0.00000  Uiso   1.00
H119   H     0.72224   0.77266   0.78772   0.00000  Uiso   1.00
H120   H     0.77763   0.72815   1.13148   0.00000  Uiso   1.00
N15    N     0.18564   0.69803   0.95477   0.00000  Uiso   1.00
C196   C     0.03588   0.95908   0.49397   0.00000  Uiso   1.00
C197   C     0.07104   0.02005   0.49036   0.00000  Uiso   1.00
C198   C     0.03562   0.08173   0.49511   0.00000  Uiso   1.00
C199   C     0.07186   0.10487   0.50206   0.00000  Uiso   1.00
C200   C     0.09538   0.10286   0.59347   0.00000  Uiso   1.00
C201   C     0.12885   0.12569   0.60190   0.00000  Uiso   1.00
C202   C     0.13923   0.15100   0.51931   0.00000  Uiso   1.00
C203   C     0.11555   0.15304   0.42778   0.00000  Uiso   1.00
C204   C     0.08201   0.13025   0.41955   0.00000  Uiso   1.00
C205   C     0.17431   0.17537   0.53128   0.00000  Uiso   1.00
C206   C     0.71847   0.27618   0.45887   0.00000  Uiso   1.00
C207   C     0.73425   0.26283   0.36279   0.00000  Uiso   1.00
C208   C     0.76568   0.23710   0.55572   0.00000  Uiso   1.00
H121   H     0.09900   0.03451   0.48634   0.00000  Uiso   1.00
H122   H     0.08762   0.08379   0.65851   0.00000  Uiso   1.00
H123   H     0.14652   0.12376   0.67335   0.00000  Uiso   1.00
H124   H     0.12272   0.17243   0.36300   0.00000  Uiso   1.00
H125   H     0.06392   0.13237   0.34891   0.00000  Uiso   1.00
H126   H     0.19075   0.17342   0.60478   0.00000  Uiso   1.00
H127   H     0.72224   0.27266   0.28772   0.00000  Uiso   1.00
H128   H     0.77763   0.22815   0.63148   0.00000  Uiso   1.00
N16    N     0.18564   0.19803   0.45477   0.00000  Uiso   1.00
C209   C     0.50000   0.47951   0.49409   0.00000  Uiso   1.00
C210   C     0.50000   0.60145   0.49433   0.00000  Uiso   1.00
H129   H     0.50000   0.63271   0.49682   0.00000  Uiso   1.00
C211   C     0.50000   0.97951   0.99409   0.00000  Uiso   1.00
C212   C     0.50000   0.10145   0.99433   0.00000  Uiso   1.00
H130   H     0.50000   0.13271   0.99682   0.00000  Uiso   1.00
C213   C     0.00000   0.47951   0.99409   0.00000  Uiso   1.00
C214   C     0.00000   0.60145   0.99433   0.00000  Uiso   1.00
H131   H     0.00000   0.63271   0.99682   0.00000  Uiso   1.00
C215   C     0.00000   0.97951   0.49409   0.00000  Uiso   1.00
C216   C     0.00000   0.10145   0.49433   0.00000  Uiso   1.00
H132   H     0.00000   0.13271   0.49682   0.00000  Uiso   1.00
C217   C     0.50000   0.52049   0.49409   0.00000  Uiso   1.00
C218   C     0.50000   0.39855   0.49433   0.00000  Uiso   1.00
H133   H     0.50000   0.36729   0.49682   0.00000  Uiso   1.00
C219   C     0.50000   0.02049   0.99409   0.00000  Uiso   1.00
C220   C     0.50000   0.89855   0.99433   0.00000  Uiso   1.00
H134   H     0.50000   0.86729   0.99682   0.00000  Uiso   1.00
C221   C     0.00000   0.52049   0.99409   0.00000  Uiso   1.00
C222   C     0.00000   0.39855   0.99433   0.00000  Uiso   1.00
H135   H     0.00000   0.36729   0.99682   0.00000  Uiso   1.00
C223   C     0.00000   0.02049   0.49409   0.00000  Uiso   1.00
C224   C     0.00000   0.89855   0.49433   0.00000  Uiso   1.00
H136   H     0.00000   0.86729   0.49682   0.00000  Uiso   1.00
loop_
_geom_bond_atom_site_label_1
_geom_bond_atom_site_label_2
_geom_bond_distance
_geom_bond_site_symmetry_2
_ccdc_geom_bond_type
C1     C107    1.416   .     S
C1     C106    1.406   .     S
C1     C209    1.418   .     S
C2     C105    1.406   .     S
C2     H1      1.082   .     S
C2     C106    1.391   .     S
C3     C4      1.481   .     S
C3     C210    1.399   .     S
C3     C105    1.416   .     S
C4     C9      1.402   .     S
C4     C5      1.403   .     S
C5     H2      1.083   .     S
C5     C6      1.397   .     S
C6     H3      1.083   .     S
C6     C7      1.404   .     S
C7     C8      1.407   .     S
C7     C10     1.477   .     S
C8     H4      1.083   .     S
C8     C9      1.398   .     S
C9     H5      1.083   .     S
C10    N1      1.300   .     S
C10    H6      1.082   .     S
C11    N12     1.438   .     S
C11    C104    1.408   .     S
C11    C12     1.399   .     S
C12    C103    1.399   .     S
C12    H7      1.082   .     S
C13    C104    1.398   .     S
C13    C102    1.408   .     S
C13    H8      1.080   .     S
N1     C154    1.438   .     S
C14    C119    1.406   .     S
C14    C211    1.418   .     S
C14    C120    1.416   .     S
C15    C118    1.406   .     S
C15    H9      1.082   .     S
C16    C212    1.399   .     S
C16    C17     1.481   .     S
C16    C118    1.416   .     S
C17    C18     1.403   .     S
C17    C22     1.402   .     S
C18    C19     1.397   .     S
C18    H10     1.083   .     S
C19    C20     1.404   .     S
C19    H11     1.083   .     S
C20    C23     1.477   .     S
C20    C21     1.407   .     S
C21    C22     1.398   .     S
C21    H12     1.083   .     S
C22    H13     1.083   .     S
C23    H14     1.082   .     S
C23    N2      1.300   .     S
C24    N11     1.438   .     S
C24    C25     1.399   .     S
C24    C91     1.408   .     S
C25    C90     1.399   .     S
C25    H15     1.082   .     S
C26    C91     1.398   .     S
C26    C89     1.408   .     S
C26    H16     1.080   .     S
N2     C141    1.438   .     S
C27    C133    1.416   .     S
C27    C132    1.406   .     S
C28    C131    1.406   .     S
C28    C132    1.391   .     S
C28    H17     1.082   .     S
C29    C30     1.481   .     S
C29    C131    1.416   .     S
C30    C31     1.403   .     S
C30    C35     1.402   .     S
C31    C32     1.397   .     S
C31    H18     1.083   .     S
C32    C33     1.404   .     S
C32    H19     1.083   .     S
C33    C36     1.477   .     S
C33    C34     1.407   .     S
C34    C35     1.398   .     S
C34    H20     1.083   .     S
C35    H21     1.083   .     S
C36    H22     1.082   .     S
C36    N3      1.300   .     S
C37    N10     1.438   .     S
C37    C38     1.399   .     S
C37    C78     1.408   .     S
C38    C77     1.399   .     S
C38    H23     1.082   .     S
C39    C78     1.398   .     S
C39    C76     1.408   .     S
C39    H24     1.080   .     S
N3     C128    1.438   .     S
C40    C145    1.406   .     S
C40    C146    1.416   .     S
C41    H25     1.082   .     S
C41    C144    1.406   .     S
C42    C43     1.481   .     S
C42    C144    1.416   .     S
C43    C48     1.402   .     S
C43    C44     1.403   .     S
C44    C45     1.397   .     S
C44    H26     1.083   .     S
C45    H27     1.083   .     S
C45    C46     1.404   .     S
C46    C47     1.407   .     S
C46    C49     1.477   .     S
C47    H28     1.083   .     S
C47    C48     1.398   .     S
C48    H29     1.083   .     S
C49    N4      1.300   .     S
C49    H30     1.082   .     S
C50    C65     1.408   .     S
C50    N9      1.438   .     S
C50    C51     1.399   .     S
C51    H31     1.082   .     S
C51    C64     1.399   .     S
C52    C63     1.408   .     S
C52    C65     1.398   .     S
C52    H32     1.080   .     S
N4     C115    1.438   .     S
C53    C217    1.418   .     S
C53    C158    1.406   .     S
C53    C159    1.416   .     S
C54    H33     1.082   .     S
C54    C158    1.391   .     S
C54    C157    1.406   .     S
C55    C157    1.416   .     S
C55    C218    1.399   .     S
C55    C56     1.481   .     S
C56    C61     1.402   .     S
C56    C57     1.403   .     S
C57    C58     1.397   .     S
C57    H34     1.083   .     S
C58    H35     1.083   .     S
C58    C59     1.404   .     S
C59    C60     1.407   .     S
C59    C62     1.477   .     S
C60    C61     1.398   .     S
C60    H36     1.083   .     S
C61    H37     1.083   .     S
C62    N5      1.300   .     S
C62    H38     1.082   .     S
C63    N16     1.438   .     S
C63    C64     1.399   .     S
C64    H39     1.082   .     S
C65    H40     1.080   .     S
N5     C206    1.438   .     S
C66    C219    1.418   .     S
C66    C171    1.406   .     S
C66    C172    1.416   .     S
C67    C170    1.406   .     S
C67    H41     1.082   .     S
C68    C220    1.399   .     S
C68    C69     1.481   .     S
C68    C170    1.416   .     S
C69    C70     1.403   .     S
C69    C74     1.402   .     S
C70    C71     1.397   .     S
C70    H42     1.083   .     S
C71    C72     1.404   .     S
C71    H43     1.083   .     S
C72    C75     1.477   .     S
C72    C73     1.407   .     S
C73    H44     1.083   .     S
C73    C74     1.398   .     S
C74    H45     1.083   .     S
C75    H46     1.082   .     S
C75    N6      1.300   .     S
C76    C77     1.399   .     S
C76    N15     1.438   .     S
C77    H47     1.082   .     S
C78    H48     1.080   .     S
N6     C193    1.438   .     S
C79    C221    1.418   .     S
C79    C184    1.406   .     S
C79    C185    1.416   .     S
C80    C184    1.391   .     S
C80    C183    1.406   .     S
C80    H49     1.082   .     S
C81    C183    1.416   .     S
C81    C222    1.399   .     S
C81    C82     1.481   .     S
C82    C83     1.403   .     S
C82    C87     1.402   .     S
C83    C84     1.397   .     S
C83    H50     1.083   .     S
C84    C85     1.404   .     S
C84    H51     1.083   .     S
C85    C88     1.477   .     S
C85    C86     1.407   .     S
C86    H52     1.083   .     S
C86    C87     1.398   .     S
C87    H53     1.083   .     S
C88    H54     1.082   .     S
C88    N7      1.300   .     S
C89    C90     1.399   .     S
C89    N14     1.438   .     S
C90    H55     1.082   .     S
C91    H56     1.080   .     S
N7     C180    1.438   .     S
C92    C223    1.418   .     S
C92    C197    1.406   .     S
C92    C198    1.416   .     S
C93    H57     1.082   .     S
C93    C196    1.406   .     S
C94    C224    1.399   .     S
C94    C95     1.481   .     S
C94    C196    1.416   .     S
C95    C100    1.402   .     S
C95    C96     1.403   .     S
C96    H58     1.083   .     S
C96    C97     1.397   .     S
C97    H59     1.083   .     S
C97    C98     1.404   .     S
C98    C99     1.407   .     S
C98    C101    1.477   .     S
C99    C100    1.398   .     S
C99    H60     1.083   .     S
C100   H61     1.083   .     S
C101   N8      1.300   .     S
C101   H62     1.082   .     S
C102   N13     1.438   .     S
C102   C103    1.399   .     S
C103   H63     1.082   .     S
C104   H64     1.080   .     S
N8     C167    1.438   .     S
C105   C217    1.418   .     S
C106   H65     1.082   .     S
C107   C108    1.481   .     S
C107   C218    1.399   .     S
C108   C113    1.402   .     S
C108   C109    1.403   .     S
C109   C110    1.397   .     S
C109   H66     1.083   .     S
C110   H67     1.083   .     S
C110   C111    1.404   .     S
C111   C114    1.477   .     S
C111   C112    1.407   .     S
C112   C113    1.398   .     S
C112   H68     1.083   .     S
C113   H69     1.083   .     S
C114   N9      1.300   .     S
C114   H70     1.082   .     S
C115   C208    1.408   .     S
C115   C116    1.399   .     S
C116   H71     1.082   .     S
C116   C207    1.399   .     S
C117   C206    1.408   .     S
C117   C208    1.398   .     S
C117   H72     1.080   .     S
C118   C219    1.418   .     S
C119   H73     1.082   .     S
C120   C121    1.481   .     S
C120   C220    1.399   .     S
C121   C122    1.403   .     S
C121   C126    1.402   .     S
C122   C123    1.397   .     S
C122   H74     1.083   .     S
C123   C124    1.404   .     S
C123   H75     1.083   .     S
C124   C127    1.477   .     S
C124   C125    1.407   .     S
C125   H76     1.083   .     S
C125   C126    1.398   .     S
C126   H77     1.083   .     S
C127   H78     1.082   .     S
C127   N10     1.300   .     S
C128   C129    1.399   .     S
C128   C195    1.408   .     S
C129   C194    1.399   .     S
C129   H79     1.082   .     S
C130   C195    1.398   .     S
C130   C193    1.408   .     S
C130   H80     1.080   .     S
C132   H81     1.082   .     S
C133   C134    1.481   .     S
C134   C135    1.403   .     S
C134   C139    1.402   .     S
C135   C136    1.397   .     S
C135   H82     1.083   .     S
C136   C137    1.404   .     S
C136   H83     1.083   .     S
C137   C140    1.477   .     S
C137   C138    1.407   .     S
C138   H84     1.083   .     S
C138   C139    1.398   .     S
C139   H85     1.083   .     S
C140   H86     1.082   .     S
C140   N11     1.300   .     S
C141   C142    1.399   .     S
C141   C182    1.408   .     S
C142   C181    1.399   .     S
C142   H87     1.082   .     S
C143   C182    1.398   .     S
C143   C180    1.408   .     S
C143   H88     1.080   .     S
C145   H89     1.082   .     S
C146   C147    1.481   .     S
C147   C152    1.402   .     S
C147   C148    1.403   .     S
C148   H90     1.083   .     S
C148   C149    1.397   .     S
C149   H91     1.083   .     S
C149   C150    1.404   .     S
C150   C153    1.477   .     S
C150   C151    1.407   .     S
C151   C152    1.398   .     S
C151   H92     1.083   .     S
C152   H93     1.083   .     S
C153   N12     1.300   .     S
C153   H94     1.082   .     S
C154   C169    1.408   .     S
C154   C155    1.399   .     S
C155   H95     1.082   .     S
C155   C168    1.399   .     S
C156   C169    1.398   .     S
C156   C167    1.408   .     S
C156   H96     1.080   .     S
C157   C209    1.418   .     S
C158   H97     1.082   .     S
C159   C210    1.399   .     S
C159   C160    1.481   .     S
C160   C165    1.402   .     S
C160   C161    1.403   .     S
C161   H98     1.083   .     S
C161   C162    1.397   .     S
C162   H99     1.083   .     S
C162   C163    1.404   .     S
C163   C164    1.407   .     S
C163   C166    1.477   .     S
C164   H100    1.083   .     S
C164   C165    1.398   .     S
C165   H101    1.083   .     S
C166   N13     1.300   .     S
C166   H102    1.082   .     S
C167   C168    1.399   .     S
C168   H103    1.082   .     S
C169   H104    1.080   .     S
C170   C211    1.418   .     S
C171   H105    1.082   .     S
C172   C212    1.399   .     S
C172   C173    1.481   .     S
C173   C174    1.403   .     S
C173   C178    1.402   .     S
C174   C175    1.397   .     S
C174   H106    1.083   .     S
C175   C176    1.404   .     S
C175   H107    1.083   .     S
C176   C179    1.477   .     S
C176   C177    1.407   .     S
C177   C178    1.398   .     S
C177   H108    1.083   .     S
C178   H109    1.083   .     S
C179   H110    1.082   .     S
C179   N14     1.300   .     S
C180   C181    1.399   .     S
C181   H111    1.082   .     S
C182   H112    1.080   .     S
C183   C213    1.418   .     S
C184   H113    1.082   .     S
C185   C214    1.399   .     S
C185   C186    1.481   .     S
C186   C187    1.403   .     S
C186   C191    1.402   .     S
C187   C188    1.397   .     S
C187   H114    1.083   .     S
C188   C189    1.404   .     S
C188   H115    1.083   .     S
C189   C192    1.477   .     S
C189   C190    1.407   .     S
C190   C191    1.398   .     S
C190   H116    1.083   .     S
C191   H117    1.083   .     S
C192   H118    1.082   .     S
C192   N15     1.300   .     S
C193   C194    1.399   .     S
C194   H119    1.082   .     S
C195   H120    1.080   .     S
C196   C215    1.418   .     S
C197   H121    1.082   .     S
C198   C216    1.399   .     S
C198   C199    1.481   .     S
C199   C204    1.402   .     S
C199   C200    1.403   .     S
C200   C201    1.397   .     S
C200   H122    1.083   .     S
C201   H123    1.083   .     S
C201   C202    1.404   .     S
C202   C203    1.407   .     S
C202   C205    1.477   .     S
C203   H124    1.083   .     S
C203   C204    1.398   .     S
C204   H125    1.083   .     S
C205   N16     1.300   .     S
C205   H126    1.082   .     S
C206   C207    1.399   .     S
C207   H127    1.082   .     S
C208   H128    1.080   .     S
C209   C217    1.422   .     S
C210   H129    1.085   .     S
C212   H130    1.085   .     S
C213   C221    1.422   .     S
C214   H131    1.085   .     S
C216   H132    1.085   .     S
C218   H133    1.085   .     S
C220   H134    1.085   .     S
C222   H135    1.085   .     S
C224   H136    1.085   .     S
