data_MPCOF
_audit_creation_date              2016-12-13
_audit_creation_method            'Materials Studio'
_symmetry_space_group_name_H-M    'P1'
_symmetry_Int_Tables_number       1
_symmetry_cell_setting            triclinic
loop_
_symmetry_equiv_pos_as_xyz
  x,y,z
_cell_length_a                    16.6942
_cell_length_b                    16.6942
_cell_length_c                    6.7978
_cell_angle_alpha                 90.0000
_cell_angle_beta                  90.0000
_cell_angle_gamma                 120.0000
loop_
_atom_site_label
_atom_site_type_symbol
_atom_site_fract_x
_atom_site_fract_y
_atom_site_fract_z
_atom_site_U_iso_or_equiv
_atom_site_adp_type
_atom_site_occupancy
N1     N     0.64803   0.17428   0.32533   0.00000  Uiso   1.00
H2     H     0.70833   0.18767   0.28058   0.00000  Uiso   1.00
N3     N     0.82572   0.47376   0.32533   0.00000  Uiso   1.00
H4     H     0.81233   0.52066   0.28058   0.00000  Uiso   1.00
N5     N     0.52625   0.35197   0.32533   0.00000  Uiso   1.00
H6     H     0.47934   0.29167   0.28058   0.00000  Uiso   1.00
N7     N     0.35197   0.82572   0.32533   0.00000  Uiso   1.00
H8     H     0.29167   0.81233   0.28058   0.00000  Uiso   1.00
N9     N     0.17428   0.52625   0.32533   0.00000  Uiso   1.00
H10    H     0.18767   0.47934   0.28058   0.00000  Uiso   1.00
N11    N     0.47376   0.64803   0.32533   0.00000  Uiso   1.00
H12    H     0.52066   0.70833   0.28058   0.00000  Uiso   1.00
N13    N     0.35197   0.82572   0.67468   0.00000  Uiso   1.00
H14    H     0.29167   0.81233   0.71942   0.00000  Uiso   1.00
N15    N     0.17428   0.52625   0.67468   0.00000  Uiso   1.00
H16    H     0.18767   0.47934   0.71942   0.00000  Uiso   1.00
N17    N     0.47376   0.64803   0.67468   0.00000  Uiso   1.00
H18    H     0.52066   0.70833   0.71942   0.00000  Uiso   1.00
N19    N     0.64803   0.17428   0.67468   0.00000  Uiso   1.00
H20    H     0.70833   0.18767   0.71942   0.00000  Uiso   1.00
N21    N     0.82572   0.47376   0.67468   0.00000  Uiso   1.00
H22    H     0.81233   0.52066   0.71942   0.00000  Uiso   1.00
N23    N     0.52625   0.35197   0.67468   0.00000  Uiso   1.00
H24    H     0.47934   0.29167   0.71942   0.00000  Uiso   1.00
C25    C     0.57454   0.09235   0.27034   0.00000  Uiso   1.00
C26    C     0.90765   0.48219   0.27034   0.00000  Uiso   1.00
C27    C     0.51781   0.42546   0.27034   0.00000  Uiso   1.00
C28    C     0.42546   0.90765   0.27034   0.00000  Uiso   1.00
C29    C     0.09235   0.51781   0.27034   0.00000  Uiso   1.00
C30    C     0.48219   0.57454   0.27034   0.00000  Uiso   1.00
C31    C     0.42546   0.90765   0.72966   0.00000  Uiso   1.00
C32    C     0.09235   0.51781   0.72966   0.00000  Uiso   1.00
C33    C     0.48219   0.57454   0.72966   0.00000  Uiso   1.00
C34    C     0.57454   0.09235   0.72966   0.00000  Uiso   1.00
C35    C     0.90765   0.48219   0.72966   0.00000  Uiso   1.00
C36    C     0.51781   0.42546   0.72966   0.00000  Uiso   1.00
C37    C     0.59174   0.01828   0.24869   0.00000  Uiso   1.00
C38    C     0.98172   0.57346   0.24869   0.00000  Uiso   1.00
C39    C     0.42654   0.40826   0.24869   0.00000  Uiso   1.00
C40    C     0.40826   0.98172   0.24869   0.00000  Uiso   1.00
C41    C     0.01828   0.42654   0.24869   0.00000  Uiso   1.00
C42    C     0.57346   0.59174   0.24869   0.00000  Uiso   1.00
C43    C     0.40826   0.98172   0.75131   0.00000  Uiso   1.00
C44    C     0.01828   0.42654   0.75131   0.00000  Uiso   1.00
C45    C     0.57346   0.59174   0.75131   0.00000  Uiso   1.00
C46    C     0.59174   0.01828   0.75131   0.00000  Uiso   1.00
C47    C     0.98172   0.57346   0.75131   0.00000  Uiso   1.00
C48    C     0.42654   0.40826   0.75131   0.00000  Uiso   1.00
C49    C     0.51770   0.92640   0.25454   0.00000  Uiso   1.00
C50    C     0.07360   0.59130   0.25454   0.00000  Uiso   1.00
C51    C     0.40870   0.48230   0.25454   0.00000  Uiso   1.00
C52    C     0.48230   0.07360   0.25454   0.00000  Uiso   1.00
C53    C     0.92640   0.40870   0.25454   0.00000  Uiso   1.00
C54    C     0.59130   0.51770   0.25454   0.00000  Uiso   1.00
C55    C     0.48230   0.07360   0.74546   0.00000  Uiso   1.00
C56    C     0.92640   0.40870   0.74546   0.00000  Uiso   1.00
C57    C     0.59130   0.51770   0.74546   0.00000  Uiso   1.00
C58    C     0.51770   0.92640   0.74546   0.00000  Uiso   1.00
C59    C     0.07360   0.59130   0.74546   0.00000  Uiso   1.00
C60    C     0.40870   0.48230   0.74546   0.00000  Uiso   1.00
H61    H     0.65808   0.03036   0.24322   0.00000  Uiso   1.00
H62    H     0.96964   0.62772   0.24322   0.00000  Uiso   1.00
H63    H     0.37228   0.34192   0.24322   0.00000  Uiso   1.00
H64    H     0.34192   0.96964   0.24322   0.00000  Uiso   1.00
H65    H     0.03036   0.37228   0.24322   0.00000  Uiso   1.00
H66    H     0.62772   0.65808   0.24322   0.00000  Uiso   1.00
H67    H     0.34192   0.96964   0.75678   0.00000  Uiso   1.00
H68    H     0.03036   0.37228   0.75678   0.00000  Uiso   1.00
H69    H     0.62772   0.65808   0.75678   0.00000  Uiso   1.00
H70    H     0.65808   0.03036   0.75678   0.00000  Uiso   1.00
H71    H     0.96964   0.62772   0.75678   0.00000  Uiso   1.00
H72    H     0.37228   0.34192   0.75678   0.00000  Uiso   1.00
H73    H     0.53126   0.87324   0.25253   0.00000  Uiso   1.00
H74    H     0.12676   0.65802   0.25253   0.00000  Uiso   1.00
H75    H     0.34198   0.46874   0.25253   0.00000  Uiso   1.00
H76    H     0.46874   0.12676   0.25253   0.00000  Uiso   1.00
H77    H     0.87324   0.34198   0.25253   0.00000  Uiso   1.00
H78    H     0.65802   0.53126   0.25253   0.00000  Uiso   1.00
H79    H     0.46874   0.12676   0.74748   0.00000  Uiso   1.00
H80    H     0.87324   0.34198   0.74748   0.00000  Uiso   1.00
H81    H     0.65802   0.53126   0.74748   0.00000  Uiso   1.00
H82    H     0.53126   0.87324   0.74748   0.00000  Uiso   1.00
H83    H     0.12676   0.65802   0.74748   0.00000  Uiso   1.00
H84    H     0.34198   0.46874   0.74748   0.00000  Uiso   1.00
P85    P     0.35075   0.76598   0.50000   0.00000  Uiso   1.00
P86    P     0.23402   0.58477   0.50000   0.00000  Uiso   1.00
P87    P     0.41523   0.64925   0.50000   0.00000  Uiso   1.00
N88    N     0.42835   0.74485   0.50000   0.00000  Uiso   1.00
N89    N     0.25515   0.68349   0.50000   0.00000  Uiso   1.00
N90    N     0.31651   0.57166   0.50000   0.00000  Uiso   1.00
P91    P     0.64925   0.23402   0.50000   0.00000  Uiso   1.00
P92    P     0.76598   0.41523   0.50000   0.00000  Uiso   1.00
P93    P     0.58477   0.35075   0.50000   0.00000  Uiso   1.00
N94    N     0.57166   0.25515   0.50000   0.00000  Uiso   1.00
N95    N     0.74485   0.31651   0.50000   0.00000  Uiso   1.00
N96    N     0.68349   0.42835   0.50000   0.00000  Uiso   1.00
loop_
_geom_bond_atom_site_label_1
_geom_bond_atom_site_label_2
_geom_bond_distance
_geom_bond_site_symmetry_2
_ccdc_geom_bond_type
N1     C25     1.356   .     S
N1     H2      0.965   .     S
N1     P91     1.544   .     S
N3     H4      0.965   .     S
N3     C26     1.356   .     S
N3     P92     1.544   .     S
N5     C27     1.356   .     S
N5     H6      0.965   .     S
N5     P93     1.544   .     S
N7     H8      0.965   .     S
N7     C28     1.356   .     S
N7     P85     1.544   .     S
N9     H10     0.965   .     S
N9     C29     1.356   .     S
N9     P86     1.544   .     S
N11    C30     1.356   .     S
N11    H12     0.965   .     S
N11    P87     1.544   .     S
N13    H14     0.965   .     S
N13    P85     1.544   .     S
N13    C31     1.356   .     S
N15    P86     1.544   .     S
N15    H16     0.965   .     S
N15    C32     1.356   .     S
N17    P87     1.544   .     S
N17    C33     1.356   .     S
N17    H18     0.965   .     S
N19    C34     1.356   .     S
N19    P91     1.544   .     S
N19    H20     0.965   .     S
N21    H22     0.965   .     S
N21    P92     1.544   .     S
N21    C35     1.356   .     S
N23    C36     1.356   .     S
N23    P93     1.544   .     S
N23    H24     0.965   .     S
C25    C37     1.410   .     S
C25    C52     1.414   .     S
C26    C53     1.414   .     S
C26    C38     1.410   .     S
C27    C54     1.414   .     S
C27    C39     1.410   .     S
C28    C40     1.410   .     S
C28    C49     1.414   .     S
C29    C41     1.410   .     S
C29    C50     1.414   .     S
C30    C42     1.410   .     S
C30    C51     1.414   .     S
C31    C43     1.410   .     S
C31    C58     1.414   .     S
C32    C59     1.414   .     S
C32    C44     1.410   .     S
C33    C45     1.410   .     S
C33    C60     1.414   .     S
C34    C46     1.410   .     S
C34    C55     1.414   .     S
C35    C47     1.410   .     S
C35    C56     1.414   .     S
C36    C57     1.414   .     S
C36    C48     1.410   .     S
C37    H61     1.022   .     S
C38    H62     1.022   .     S
C39    C51     1.409   .     S
C39    H63     1.022   .     S
C40    H64     1.022   .     S
C41    H65     1.022   .     S
C42    H66     1.022   .     S
C42    C54     1.409   .     S
C43    H67     1.022   .     S
C44    H68     1.022   .     S
C45    H69     1.022   .     S
C45    C57     1.409   .     S
C46    H70     1.022   .     S
C47    H71     1.022   .     S
C48    C60     1.409   .     S
C48    H72     1.022   .     S
C49    H73     1.020   .     S
C50    H74     1.020   .     S
C51    H75     1.020   .     S
C52    H76     1.020   .     S
C53    H77     1.020   .     S
C54    H78     1.020   .     S
C55    H79     1.020   .     S
C56    H80     1.020   .     S
C57    H81     1.020   .     S
C58    H82     1.020   .     S
C59    H83     1.020   .     S
C60    H84     1.020   .     S
P85    N88     1.503   .     S
P85    N89     1.499   .     S
P86    N89     1.503   .     S
P86    N90     1.499   .     S
P87    N90     1.503   .     S
P87    N88     1.499   .     S
P91    N95     1.499   .     S
P91    N94     1.503   .     S
P92    N96     1.499   .     S
P92    N95     1.503   .     S
P93    N96     1.503   .     S
P93    N94     1.499   .     S
