data_N3-COF
_audit_creation_date              2016-12-13
_audit_creation_method            'Materials Studio'
_symmetry_space_group_name_H-M    'P1'
_symmetry_Int_Tables_number       1
_symmetry_cell_setting            triclinic
loop_
_symmetry_equiv_pos_as_xyz
  x,y,z
_cell_length_a                    25.8027
_cell_length_b                    25.8027
_cell_length_c                    3.4700
_cell_angle_alpha                 90.0000
_cell_angle_beta                  90.0000
_cell_angle_gamma                 120.0000
loop_
_atom_site_label
_atom_site_type_symbol
_atom_site_fract_x
_atom_site_fract_y
_atom_site_fract_z
_atom_site_U_iso_or_equiv
_atom_site_adp_type
_atom_site_occupancy
C1     C     0.72818   0.36147   0.50750   0.00000  Uiso   1.00
C2     C     0.27264   0.62724   0.50750   0.00000  Uiso   1.00
C3     C     0.63853   0.36672   0.50750   0.00000  Uiso   1.00
C4     C     0.37276   0.64540   0.50750   0.00000  Uiso   1.00
C5     C     0.63328   0.27182   0.50750   0.00000  Uiso   1.00
C6     C     0.35460   0.72736   0.50750   0.00000  Uiso   1.00
N7     N     0.69396   0.30095   0.50750   0.00000  Uiso   1.00
N8     N     0.29508   0.68730   0.50750   0.00000  Uiso   1.00
N9     N     0.69905   0.39301   0.50750   0.00000  Uiso   1.00
N10    N     0.31270   0.60779   0.50750   0.00000  Uiso   1.00
N11    N     0.60699   0.30604   0.50750   0.00000  Uiso   1.00
N12    N     0.39221   0.70491   0.50750   0.00000  Uiso   1.00
C13    C     0.21017   0.58665   0.50750   0.00000  Uiso   1.00
C14    C     0.79151   0.39043   0.50750   0.00000  Uiso   1.00
C15    C     0.41335   0.62352   0.50750   0.00000  Uiso   1.00
C16    C     0.60957   0.40108   0.50750   0.00000  Uiso   1.00
C17    C     0.37648   0.78982   0.50750   0.00000  Uiso   1.00
C18    C     0.59891   0.20848   0.50750   0.00000  Uiso   1.00
C19    C     0.16840   0.60711   0.50750   0.00000  Uiso   1.00
C20    C     0.82184   0.35728   0.50750   0.00000  Uiso   1.00
C21    C     0.62658   0.17282   0.50750   0.00000  Uiso   1.00
C22    C     0.33702   0.81313   0.50750   0.00000  Uiso   1.00
C23    C     0.39289   0.56128   0.50750   0.00000  Uiso   1.00
C24    C     0.64272   0.46456   0.50750   0.00000  Uiso   1.00
C25    C     0.82718   0.45375   0.50750   0.00000  Uiso   1.00
C26    C     0.18687   0.52390   0.50750   0.00000  Uiso   1.00
C27    C     0.43871   0.83160   0.50750   0.00000  Uiso   1.00
C28    C     0.53544   0.17816   0.50750   0.00000  Uiso   1.00
C29    C     0.54625   0.37342   0.50750   0.00000  Uiso   1.00
C30    C     0.47610   0.66297   0.50750   0.00000  Uiso   1.00
C31    C     0.10636   0.56681   0.50750   0.00000  Uiso   1.00
C32    C     0.88477   0.38602   0.50750   0.00000  Uiso   1.00
C33    C     0.59235   0.10991   0.50750   0.00000  Uiso   1.00
C34    C     0.35870   0.87516   0.50750   0.00000  Uiso   1.00
C35    C     0.43319   0.53955   0.50750   0.00000  Uiso   1.00
C36    C     0.61398   0.49875   0.50750   0.00000  Uiso   1.00
C37    C     0.89009   0.48244   0.50750   0.00000  Uiso   1.00
C38    C     0.12484   0.48354   0.50750   0.00000  Uiso   1.00
C39    C     0.46045   0.89364   0.50750   0.00000  Uiso   1.00
C40    C     0.50125   0.11523   0.50750   0.00000  Uiso   1.00
C41    C     0.51756   0.40765   0.50750   0.00000  Uiso   1.00
C42    C     0.51646   0.64130   0.50750   0.00000  Uiso   1.00
C43    C     0.08344   0.50427   0.50750   0.00000  Uiso   1.00
C44    C     0.91966   0.44908   0.50750   0.00000  Uiso   1.00
C45    C     0.49573   0.57917   0.50750   0.00000  Uiso   1.00
C46    C     0.55092   0.47058   0.50750   0.00000  Uiso   1.00
C47    C     0.42083   0.91656   0.50750   0.00000  Uiso   1.00
C48    C     0.52942   0.08034   0.50750   0.00000  Uiso   1.00
N49    N     0.50051   0.01977   0.50750   0.00000  Uiso   1.00
C50    C     0.44147   0.97851   0.50750   0.00000  Uiso   1.00
N51    N     0.98023   0.48074   0.50750   0.00000  Uiso   1.00
C52    C     0.02149   0.46296   0.50750   0.00000  Uiso   1.00
N53    N     0.51926   0.49949   0.50750   0.00000  Uiso   1.00
C54    C     0.53704   0.55853   0.50750   0.00000  Uiso   1.00
H55    H     0.18272   0.65193   0.50750   0.00000  Uiso   1.00
H56    H     0.79830   0.31149   0.50750   0.00000  Uiso   1.00
H57    H     0.67220   0.19231   0.50750   0.00000  Uiso   1.00
H58    H     0.29167   0.78499   0.50750   0.00000  Uiso   1.00
H59    H     0.34807   0.53079   0.50750   0.00000  Uiso   1.00
H60    H     0.68851   0.48681   0.50750   0.00000  Uiso   1.00
H61    H     0.80769   0.47989   0.50750   0.00000  Uiso   1.00
H62    H     0.21501   0.50669   0.50750   0.00000  Uiso   1.00
H63    H     0.46921   0.81728   0.50750   0.00000  Uiso   1.00
H64    H     0.51319   0.20170   0.50750   0.00000  Uiso   1.00
H65    H     0.52011   0.32779   0.50750   0.00000  Uiso   1.00
H66    H     0.49331   0.70832   0.50750   0.00000  Uiso   1.00
H67    H     0.07794   0.58368   0.50750   0.00000  Uiso   1.00
H68    H     0.90467   0.36042   0.50750   0.00000  Uiso   1.00
H69    H     0.61360   0.08543   0.50750   0.00000  Uiso   1.00
H70    H     0.32841   0.88976   0.50750   0.00000  Uiso   1.00
H71    H     0.41632   0.49426   0.50750   0.00000  Uiso   1.00
H72    H     0.63958   0.54425   0.50750   0.00000  Uiso   1.00
H73    H     0.91457   0.52817   0.50750   0.00000  Uiso   1.00
H74    H     0.11023   0.43864   0.50750   0.00000  Uiso   1.00
H75    H     0.50574   0.92206   0.50750   0.00000  Uiso   1.00
H76    H     0.45575   0.09533   0.50750   0.00000  Uiso   1.00
H77    H     0.47183   0.38640   0.50750   0.00000  Uiso   1.00
H78    H     0.56136   0.67159   0.50750   0.00000  Uiso   1.00
H79    H     0.41070   0.99241   0.50750   0.00000  Uiso   1.00
H80    H     0.00758   0.41829   0.50750   0.00000  Uiso   1.00
H81    H     0.58171   0.58929   0.50750   0.00000  Uiso   1.00
loop_
_geom_bond_atom_site_label_1
_geom_bond_atom_site_label_2
_geom_bond_distance
_geom_bond_site_symmetry_2
_ccdc_geom_bond_type
C1     N9      1.356   .     S
C1     C14     1.417   .     S
C1     N7      1.356   .     S
C2     C13     1.417   .     S
C2     N10     1.356   .     S
C2     N8      1.356   .     S
C3     N9      1.356   .     S
C3     C16     1.417   .     S
C3     N11     1.356   .     S
C4     N12     1.356   .     S
C4     N10     1.356   .     S
C4     C15     1.417   .     S
C5     N7      1.356   .     S
C5     N11     1.356   .     S
C5     C18     1.417   .     S
C6     C17     1.417   .     S
C6     N8      1.356   .     S
C6     N12     1.356   .     S
C13    C19     1.418   .     S
C13    C26     1.418   .     S
C14    C20     1.419   .     S
C14    C25     1.419   .     S
C15    C23     1.418   .     S
C15    C30     1.418   .     S
C16    C24     1.419   .     S
C16    C29     1.419   .     S
C17    C22     1.418   .     S
C17    C27     1.418   .     S
C18    C21     1.419   .     S
C18    C28     1.419   .     S
C19    C31     1.407   .     S
C19    H55     1.023   .     S
C20    C32     1.408   .     S
C20    H56     1.023   .     S
C21    H57     1.023   .     S
C21    C33     1.408   .     S
C22    C34     1.407   .     S
C22    H58     1.023   .     S
C23    H59     1.023   .     S
C23    C35     1.407   .     S
C24    C36     1.408   .     S
C24    H60     1.023   .     S
C25    H61     1.023   .     S
C25    C37     1.408   .     S
C26    C38     1.407   .     S
C26    H62     1.023   .     S
C27    H63     1.023   .     S
C27    C39     1.407   .     S
C28    H64     1.023   .     S
C28    C40     1.408   .     S
C29    H65     1.023   .     S
C29    C41     1.408   .     S
C30    C42     1.407   .     S
C30    H66     1.023   .     S
C31    H67     1.023   .     S
C31    C43     1.414   .     S
C32    H68     1.019   .     S
C32    C44     1.412   .     S
C33    C48     1.407   .     S
C33    H69     1.023   .     S
C34    H70     1.023   .     S
C34    C47     1.414   .     S
C35    H71     1.023   .     S
C35    C45     1.414   .     S
C36    H72     1.019   .     S
C36    C46     1.412   .     S
C37    H73     1.023   .     S
C37    C44     1.407   .     S
C38    C43     1.414   .     S
C38    H74     1.023   .     S
C39    H75     1.023   .     S
C39    C47     1.414   .     S
C40    H76     1.019   .     S
C40    C48     1.412   .     S
C41    C46     1.407   .     S
C41    H77     1.023   .     S
C42    H78     1.023   .     S
C42    C45     1.414   .     S
C43    C52     1.410   .     S
C44    N51     1.354   .     S
C45    C54     1.410   .     S
C46    N53     1.354   .     S
C47    C50     1.410   .     S
C48    N49     1.354   .     S
C50    H79     1.022   .     S
C52    H80     1.022   .     S
N53    C54     1.354   .     S
C54    H81     1.022   .     S
