data_nchem.NPN-2
_audit_creation_date              2016-12-13
_audit_creation_method            'Materials Studio'
_symmetry_space_group_name_H-M    'P1'
_symmetry_Int_Tables_number       1
_symmetry_cell_setting            triclinic
loop_
_symmetry_equiv_pos_as_xyz
  x,y,z
_cell_length_a                    13.4210
_cell_length_b                    13.4210
_cell_length_c                    8.5280
_cell_angle_alpha                 90.0000
_cell_angle_beta                  90.0000
_cell_angle_gamma                 90.0000
loop_
_atom_site_label
_atom_site_type_symbol
_atom_site_fract_x
_atom_site_fract_y
_atom_site_fract_z
_atom_site_U_iso_or_equiv
_atom_site_adp_type
_atom_site_occupancy
C1     C     0.93460   0.91140   0.87200   0.00000  Uiso   1.00
C2     C     0.88810   0.94770   0.73520   0.00000  Uiso   1.00
H1     H     0.88960   0.01680   0.71130   0.00000  Uiso   1.00
C3     C     0.83920   0.88020   0.63420   0.00000  Uiso   1.00
H2     H     0.80810   0.90320   0.54090   0.00000  Uiso   1.00
C4     C     0.83730   0.78230   0.67210   0.00000  Uiso   1.00
C5     C     0.87730   0.74510   0.80840   0.00000  Uiso   1.00
H3     H     0.87150   0.67660   0.83530   0.00000  Uiso   1.00
C6     C     0.92640   0.81190   0.90420   0.00000  Uiso   1.00
H4     H     0.95620   0.78740   0.99760   0.00000  Uiso   1.00
N1     N     0.78130   0.71180   0.57770   0.00000  Uiso   1.00
O1     O     0.73260   0.64620   0.64290   0.00000  Uiso   1.00
C7     C     0.06540   0.08860   0.87200   0.00000  Uiso   1.00
C8     C     0.11190   0.05230   0.73520   0.00000  Uiso   1.00
H5     H     0.11040   0.98320   0.71130   0.00000  Uiso   1.00
C9     C     0.16080   0.11980   0.63420   0.00000  Uiso   1.00
H6     H     0.19190   0.09680   0.54090   0.00000  Uiso   1.00
C10    C     0.16270   0.21770   0.67210   0.00000  Uiso   1.00
C11    C     0.12270   0.25490   0.80840   0.00000  Uiso   1.00
H7     H     0.12850   0.32340   0.83530   0.00000  Uiso   1.00
C12    C     0.07360   0.18810   0.90420   0.00000  Uiso   1.00
H8     H     0.04380   0.21260   0.99760   0.00000  Uiso   1.00
N2     N     0.21870   0.28820   0.57770   0.00000  Uiso   1.00
O2     O     0.26740   0.35380   0.64290   0.00000  Uiso   1.00
C13    C     0.91140   0.06540   0.12800   0.00000  Uiso   1.00
C14    C     0.94770   0.11190   0.26480   0.00000  Uiso   1.00
H9     H     0.01680   0.11040   0.28870   0.00000  Uiso   1.00
C15    C     0.88020   0.16080   0.36580   0.00000  Uiso   1.00
H10    H     0.90320   0.19190   0.45910   0.00000  Uiso   1.00
C16    C     0.78230   0.16270   0.32790   0.00000  Uiso   1.00
C17    C     0.74510   0.12270   0.19160   0.00000  Uiso   1.00
H11    H     0.67660   0.12850   0.16470   0.00000  Uiso   1.00
C18    C     0.81190   0.07360   0.09580   0.00000  Uiso   1.00
H12    H     0.78740   0.04380   0.00240   0.00000  Uiso   1.00
N3     N     0.71180   0.21870   0.42230   0.00000  Uiso   1.00
O3     O     0.64620   0.26740   0.35710   0.00000  Uiso   1.00
C19    C     0.08860   0.93460   0.12800   0.00000  Uiso   1.00
C20    C     0.05230   0.88810   0.26480   0.00000  Uiso   1.00
H13    H     0.98320   0.88960   0.28870   0.00000  Uiso   1.00
C21    C     0.11980   0.83920   0.36580   0.00000  Uiso   1.00
H14    H     0.09680   0.80810   0.45910   0.00000  Uiso   1.00
C22    C     0.21770   0.83730   0.32790   0.00000  Uiso   1.00
C23    C     0.25490   0.87730   0.19160   0.00000  Uiso   1.00
H15    H     0.32340   0.87150   0.16470   0.00000  Uiso   1.00
C24    C     0.18810   0.92640   0.09580   0.00000  Uiso   1.00
H16    H     0.21260   0.95620   0.00240   0.00000  Uiso   1.00
N4     N     0.28820   0.78130   0.42230   0.00000  Uiso   1.00
O4     O     0.35380   0.73260   0.35710   0.00000  Uiso   1.00
C25    C     0.43460   0.58860   0.87200   0.00000  Uiso   1.00
C26    C     0.38810   0.55230   0.73520   0.00000  Uiso   1.00
H17    H     0.38960   0.48320   0.71130   0.00000  Uiso   1.00
C27    C     0.33920   0.61980   0.63420   0.00000  Uiso   1.00
H18    H     0.30810   0.59680   0.54090   0.00000  Uiso   1.00
C28    C     0.33730   0.71770   0.67210   0.00000  Uiso   1.00
C29    C     0.37730   0.75490   0.80840   0.00000  Uiso   1.00
H19    H     0.37150   0.82340   0.83530   0.00000  Uiso   1.00
C30    C     0.42640   0.68810   0.90420   0.00000  Uiso   1.00
H20    H     0.45620   0.71260   0.99760   0.00000  Uiso   1.00
N5     N     0.28130   0.78820   0.57770   0.00000  Uiso   1.00
O5     O     0.23260   0.85380   0.64290   0.00000  Uiso   1.00
C31    C     0.56540   0.41140   0.87200   0.00000  Uiso   1.00
C32    C     0.61190   0.44770   0.73520   0.00000  Uiso   1.00
H21    H     0.61040   0.51680   0.71130   0.00000  Uiso   1.00
C33    C     0.66080   0.38020   0.63420   0.00000  Uiso   1.00
H22    H     0.69190   0.40320   0.54090   0.00000  Uiso   1.00
C34    C     0.66270   0.28230   0.67210   0.00000  Uiso   1.00
C35    C     0.62270   0.24510   0.80840   0.00000  Uiso   1.00
H23    H     0.62850   0.17660   0.83530   0.00000  Uiso   1.00
C36    C     0.57360   0.31190   0.90420   0.00000  Uiso   1.00
H24    H     0.54380   0.28740   0.99760   0.00000  Uiso   1.00
N6     N     0.71870   0.21180   0.57770   0.00000  Uiso   1.00
O6     O     0.76740   0.14620   0.64290   0.00000  Uiso   1.00
C37    C     0.41140   0.43460   0.12800   0.00000  Uiso   1.00
C38    C     0.44770   0.38810   0.26480   0.00000  Uiso   1.00
H25    H     0.51680   0.38960   0.28870   0.00000  Uiso   1.00
C39    C     0.38020   0.33920   0.36580   0.00000  Uiso   1.00
H26    H     0.40320   0.30810   0.45910   0.00000  Uiso   1.00
C40    C     0.28230   0.33730   0.32790   0.00000  Uiso   1.00
C41    C     0.24510   0.37730   0.19160   0.00000  Uiso   1.00
H27    H     0.17660   0.37150   0.16470   0.00000  Uiso   1.00
C42    C     0.31190   0.42640   0.09580   0.00000  Uiso   1.00
H28    H     0.28740   0.45620   0.00240   0.00000  Uiso   1.00
N7     N     0.21180   0.28130   0.42230   0.00000  Uiso   1.00
O7     O     0.14620   0.23260   0.35710   0.00000  Uiso   1.00
C43    C     0.58860   0.56540   0.12800   0.00000  Uiso   1.00
C44    C     0.55230   0.61190   0.26480   0.00000  Uiso   1.00
H29    H     0.48320   0.61040   0.28870   0.00000  Uiso   1.00
C45    C     0.61980   0.66080   0.36580   0.00000  Uiso   1.00
H30    H     0.59680   0.69190   0.45910   0.00000  Uiso   1.00
C46    C     0.71770   0.66270   0.32790   0.00000  Uiso   1.00
C47    C     0.75490   0.62270   0.19160   0.00000  Uiso   1.00
H31    H     0.82340   0.62850   0.16470   0.00000  Uiso   1.00
C48    C     0.68810   0.57360   0.09580   0.00000  Uiso   1.00
H32    H     0.71260   0.54380   0.00240   0.00000  Uiso   1.00
N8     N     0.78820   0.71870   0.42230   0.00000  Uiso   1.00
O8     O     0.85380   0.76740   0.35710   0.00000  Uiso   1.00
Si1    Si    0.00000   0.00000   0.00000   0.00000  Uiso   1.00
Si2    Si    0.50000   0.50000   0.00000   0.00000  Uiso   1.00
loop_
_geom_bond_atom_site_label_1
_geom_bond_atom_site_label_2
_geom_bond_distance
_geom_bond_site_symmetry_2
_ccdc_geom_bond_type
C1     C2      1.410   .     S
C1     C6      1.368   .     S
C2     C3      1.412   .     S
C3     C4      1.353   .     S
C3     H2      0.950   .     S
C4     C5      1.374   .     S
C4     N1      1.452   .     S
C5     H3      0.951   .     S
C5     C6      1.380   .     S
C6     H4      0.950   .     S
N1     N8      1.332   .     S
N1     O1      1.229   .     S
C7     C8      1.410   .     S
C7     C12     1.368   .     S
C8     C9      1.412   .     S
C9     C10     1.353   .     S
C9     H6      0.950   .     S
C10    C11     1.374   .     S
C10    N2      1.452   .     S
C11    H7      0.951   .     S
C11    C12     1.380   .     S
C12    H8      0.950   .     S
N2     N7      1.332   .     S
N2     O2      1.229   .     S
C13    C14     1.410   .     S
C13    C18     1.368   .     S
C14    C15     1.412   .     S
C15    H10     0.950   .     S
C15    C16     1.353   .     S
C16    N3      1.452   .     S
C16    C17     1.374   .     S
C17    H11     0.951   .     S
C17    C18     1.380   .     S
C18    H12     0.950   .     S
N3     O3      1.229   .     S
N3     N6      1.332   .     S
C19    C20     1.410   .     S
C19    C24     1.368   .     S
C20    C21     1.412   .     S
C21    H14     0.950   .     S
C21    C22     1.353   .     S
C22    N4      1.452   .     S
C22    C23     1.374   .     S
C23    H15     0.951   .     S
C23    C24     1.380   .     S
C24    H16     0.950   .     S
N4     O4      1.229   .     S
N4     N5      1.332   .     S
C25    C26     1.410   .     S
C25    C30     1.368   .     S
C26    H17     0.950   .     S
C26    C27     1.412   .     S
C27    C28     1.353   .     S
C27    H18     0.950   .     S
C28    C29     1.374   .     S
C28    N5      1.452   .     S
C29    C30     1.380   .     S
C29    H19     0.951   .     S
C30    H20     0.950   .     S
N5     O5      1.229   .     S
C31    C32     1.410   .     S
C31    C36     1.368   .     S
C32    H21     0.950   .     S
C32    C33     1.412   .     S
C33    C34     1.353   .     S
C33    H22     0.950   .     S
C34    C35     1.374   .     S
C34    N6      1.452   .     S
C35    C36     1.380   .     S
C35    H23     0.951   .     S
C36    H24     0.950   .     S
N6     O6      1.229   .     S
C37    C42     1.368   .     S
C37    C38     1.410   .     S
C37    Si2     1.837   .     S
C38    H25     0.950   .     S
C38    C39     1.412   .     S
C39    C40     1.353   .     S
C39    H26     0.950   .     S
C40    N7      1.452   .     S
C40    C41     1.374   .     S
C41    H27     0.951   .     S
C41    C42     1.380   .     S
C42    H28     0.950   .     S
N7     O7      1.229   .     S
C43    C48     1.368   .     S
C43    C44     1.410   .     S
C43    Si2     1.837   .     S
C44    H29     0.950   .     S
C44    C45     1.412   .     S
C45    C46     1.353   .     S
C45    H30     0.950   .     S
C46    N8      1.452   .     S
C46    C47     1.374   .     S
C47    H31     0.951   .     S
C47    C48     1.380   .     S
C48    H32     0.950   .     S
N8     O8      1.229   .     S
