data_nchem.NPN-1
_audit_creation_date              2016-12-13
_audit_creation_method            'Materials Studio'
_symmetry_space_group_name_H-M    'P1'
_symmetry_Int_Tables_number       1
_symmetry_cell_setting            triclinic
loop_
_symmetry_equiv_pos_as_xyz
  x,y,z
_cell_length_a                    13.1545
_cell_length_b                    13.1545
_cell_length_c                    7.9818
_cell_angle_alpha                 90.0000
_cell_angle_beta                  90.0000
_cell_angle_gamma                 90.0000
loop_
_atom_site_label
_atom_site_type_symbol
_atom_site_fract_x
_atom_site_fract_y
_atom_site_fract_z
_atom_site_U_iso_or_equiv
_atom_site_adp_type
_atom_site_occupancy
C1     C     0.05770   0.92410   0.88910   0.00000  Uiso   1.00
C2     C     0.10600   0.95730   0.74230   0.00000  Uiso   1.00
H1     H     0.10240   0.02750   0.71520   0.00000  Uiso   1.00
C3     C     0.15750   0.89540   0.63690   0.00000  Uiso   1.00
H2     H     0.18990   0.92160   0.53970   0.00000  Uiso   1.00
C4     C     0.16190   0.79030   0.67540   0.00000  Uiso   1.00
C5     C     0.11680   0.75450   0.82040   0.00000  Uiso   1.00
H3     H     0.12220   0.68470   0.84950   0.00000  Uiso   1.00
C6     C     0.06400   0.82050   0.92280   0.00000  Uiso   1.00
H4     H     0.03080   0.79440   0.01940   0.00000  Uiso   1.00
N1     N     0.22360   0.72210   0.58060   0.00000  Uiso   1.00
O1     O     0.27520   0.65490   0.65750   0.00000  Uiso   1.00
C7     C     0.94230   0.07590   0.88910   0.00000  Uiso   1.00
C8     C     0.89400   0.04270   0.74230   0.00000  Uiso   1.00
H5     H     0.89760   0.97250   0.71520   0.00000  Uiso   1.00
C9     C     0.84250   0.10460   0.63690   0.00000  Uiso   1.00
H6     H     0.81010   0.07840   0.53970   0.00000  Uiso   1.00
C10    C     0.83810   0.20970   0.67540   0.00000  Uiso   1.00
C11    C     0.88320   0.24550   0.82040   0.00000  Uiso   1.00
H7     H     0.87780   0.31530   0.84950   0.00000  Uiso   1.00
C12    C     0.93600   0.17950   0.92280   0.00000  Uiso   1.00
H8     H     0.96920   0.20560   0.01940   0.00000  Uiso   1.00
N2     N     0.77640   0.27790   0.58060   0.00000  Uiso   1.00
O2     O     0.72480   0.34510   0.65750   0.00000  Uiso   1.00
C13    C     0.92410   0.94230   0.11090   0.00000  Uiso   1.00
C14    C     0.95730   0.89400   0.25770   0.00000  Uiso   1.00
H9     H     0.02750   0.89760   0.28480   0.00000  Uiso   1.00
C15    C     0.89540   0.84250   0.36310   0.00000  Uiso   1.00
H10    H     0.92160   0.81010   0.46030   0.00000  Uiso   1.00
C16    C     0.79030   0.83810   0.32460   0.00000  Uiso   1.00
C17    C     0.75450   0.88320   0.17960   0.00000  Uiso   1.00
H11    H     0.68470   0.87780   0.15050   0.00000  Uiso   1.00
C18    C     0.82050   0.93600   0.07720   0.00000  Uiso   1.00
H12    H     0.79440   0.96920   0.98060   0.00000  Uiso   1.00
N3     N     0.72210   0.77640   0.41940   0.00000  Uiso   1.00
O3     O     0.65490   0.72480   0.34250   0.00000  Uiso   1.00
C19    C     0.07590   0.05770   0.11090   0.00000  Uiso   1.00
C20    C     0.04270   0.10600   0.25770   0.00000  Uiso   1.00
H13    H     0.97250   0.10240   0.28480   0.00000  Uiso   1.00
C21    C     0.10460   0.15750   0.36310   0.00000  Uiso   1.00
H14    H     0.07840   0.18990   0.46030   0.00000  Uiso   1.00
C22    C     0.20970   0.16190   0.32460   0.00000  Uiso   1.00
C23    C     0.24550   0.11680   0.17960   0.00000  Uiso   1.00
H15    H     0.31530   0.12220   0.15050   0.00000  Uiso   1.00
C24    C     0.17950   0.06400   0.07720   0.00000  Uiso   1.00
H16    H     0.20560   0.03080   0.98060   0.00000  Uiso   1.00
N4     N     0.27790   0.22360   0.41940   0.00000  Uiso   1.00
O4     O     0.34510   0.27520   0.34250   0.00000  Uiso   1.00
C25    C     0.55770   0.57590   0.88910   0.00000  Uiso   1.00
C26    C     0.60600   0.54270   0.74230   0.00000  Uiso   1.00
H17    H     0.60240   0.47250   0.71520   0.00000  Uiso   1.00
C27    C     0.65750   0.60460   0.63690   0.00000  Uiso   1.00
H18    H     0.68990   0.57840   0.53970   0.00000  Uiso   1.00
C28    C     0.66190   0.70970   0.67540   0.00000  Uiso   1.00
C29    C     0.61680   0.74550   0.82040   0.00000  Uiso   1.00
H19    H     0.62220   0.81530   0.84950   0.00000  Uiso   1.00
C30    C     0.56400   0.67950   0.92280   0.00000  Uiso   1.00
H20    H     0.53080   0.70560   0.01940   0.00000  Uiso   1.00
N5     N     0.72360   0.77790   0.58060   0.00000  Uiso   1.00
O5     O     0.77520   0.84510   0.65750   0.00000  Uiso   1.00
C31    C     0.44230   0.42410   0.88910   0.00000  Uiso   1.00
C32    C     0.39400   0.45730   0.74230   0.00000  Uiso   1.00
H21    H     0.39760   0.52750   0.71520   0.00000  Uiso   1.00
C33    C     0.34250   0.39540   0.63690   0.00000  Uiso   1.00
H22    H     0.31010   0.42160   0.53970   0.00000  Uiso   1.00
C34    C     0.33810   0.29030   0.67540   0.00000  Uiso   1.00
C35    C     0.38320   0.25450   0.82040   0.00000  Uiso   1.00
H23    H     0.37780   0.18470   0.84950   0.00000  Uiso   1.00
C36    C     0.43600   0.32050   0.92280   0.00000  Uiso   1.00
H24    H     0.46920   0.29440   0.01940   0.00000  Uiso   1.00
N6     N     0.27640   0.22210   0.58060   0.00000  Uiso   1.00
O6     O     0.22480   0.15490   0.65750   0.00000  Uiso   1.00
C37    C     0.42410   0.55770   0.11090   0.00000  Uiso   1.00
C38    C     0.45730   0.60600   0.25770   0.00000  Uiso   1.00
H25    H     0.52750   0.60240   0.28480   0.00000  Uiso   1.00
C39    C     0.39540   0.65750   0.36310   0.00000  Uiso   1.00
H26    H     0.42160   0.68990   0.46030   0.00000  Uiso   1.00
C40    C     0.29030   0.66190   0.32460   0.00000  Uiso   1.00
C41    C     0.25450   0.61680   0.17960   0.00000  Uiso   1.00
H27    H     0.18470   0.62220   0.15050   0.00000  Uiso   1.00
C42    C     0.32050   0.56400   0.07720   0.00000  Uiso   1.00
H28    H     0.29440   0.53080   0.98060   0.00000  Uiso   1.00
N7     N     0.22210   0.72360   0.41940   0.00000  Uiso   1.00
O7     O     0.15490   0.77520   0.34250   0.00000  Uiso   1.00
C43    C     0.57590   0.44230   0.11090   0.00000  Uiso   1.00
C44    C     0.54270   0.39400   0.25770   0.00000  Uiso   1.00
H29    H     0.47250   0.39760   0.28480   0.00000  Uiso   1.00
C45    C     0.60460   0.34250   0.36310   0.00000  Uiso   1.00
H30    H     0.57840   0.31010   0.46030   0.00000  Uiso   1.00
C46    C     0.70970   0.33810   0.32460   0.00000  Uiso   1.00
C47    C     0.74550   0.38320   0.17960   0.00000  Uiso   1.00
H31    H     0.81530   0.37780   0.15050   0.00000  Uiso   1.00
C48    C     0.67950   0.43600   0.07720   0.00000  Uiso   1.00
H32    H     0.70560   0.46920   0.98060   0.00000  Uiso   1.00
N8     N     0.77790   0.27640   0.41940   0.00000  Uiso   1.00
O8     O     0.84510   0.22480   0.34250   0.00000  Uiso   1.00
C49    C     0.00000   0.00000   0.00000   0.00000  Uiso   1.00
C50    C     0.50000   0.50000   0.00000   0.00000  Uiso   1.00
loop_
_geom_bond_atom_site_label_1
_geom_bond_atom_site_label_2
_geom_bond_distance
_geom_bond_site_symmetry_2
_ccdc_geom_bond_type
C1     C6      1.392   .     S
C1     C2      1.403   .     S
C2     C3      1.353   .     S
C3     H2      0.950   .     S
C3     C4      1.417   .     S
C4     C5      1.383   .     S
C4     N1      1.427   .     S
C5     H3      0.950   .     S
C5     C6      1.380   .     S
N1     O1      1.272   .     S
N1     N7      1.287   .     S
C7     C12     1.392   .     S
C7     C8      1.403   .     S
C8     C9      1.353   .     S
C9     H6      0.950   .     S
C9     C10     1.417   .     S
C10    C11     1.383   .     S
C10    N2      1.427   .     S
C11    H7      0.950   .     S
C11    C12     1.380   .     S
N2     O2      1.272   .     S
N2     N8      1.287   .     S
C13    C18     1.392   .     S
C13    C14     1.403   .     S
C14    C15     1.353   .     S
C15    C16     1.417   .     S
C15    H10     0.950   .     S
C16    N3      1.427   .     S
C16    C17     1.383   .     S
C17    H11     0.950   .     S
C17    C18     1.380   .     S
N3     O3      1.272   .     S
N3     N5      1.287   .     S
C19    C49     1.535   .     S
C19    C24     1.392   .     S
C19    C20     1.403   .     S
C20    C21     1.353   .     S
C21    C22     1.417   .     S
C21    H14     0.950   .     S
C22    N4      1.427   .     S
C22    C23     1.383   .     S
C23    C24     1.380   .     S
C23    H15     0.950   .     S
N4     O4      1.272   .     S
N4     N6      1.287   .     S
C25    C30     1.392   .     S
C25    C26     1.403   .     S
C26    H17     0.950   .     S
C26    C27     1.353   .     S
C27    H18     0.950   .     S
C27    C28     1.417   .     S
C28    C29     1.383   .     S
C28    N5      1.427   .     S
C29    H19     0.950   .     S
C29    C30     1.380   .     S
N5     O5      1.272   .     S
C31    C36     1.392   .     S
C31    C32     1.403   .     S
C32    H21     0.950   .     S
C32    C33     1.353   .     S
C33    H22     0.950   .     S
C33    C34     1.417   .     S
C34    C35     1.383   .     S
C34    N6      1.427   .     S
C35    H23     0.950   .     S
C35    C36     1.380   .     S
N6     O6      1.272   .     S
C37    C42     1.392   .     S
C37    C50     1.535   .     S
C37    C38     1.403   .     S
C38    H25     0.950   .     S
C38    C39     1.353   .     S
C39    C40     1.417   .     S
C39    H26     0.950   .     S
C40    N7      1.427   .     S
C40    C41     1.383   .     S
C41    H27     0.950   .     S
C41    C42     1.380   .     S
N7     O7      1.272   .     S
C43    C50     1.535   .     S
C43    C48     1.392   .     S
C43    C44     1.403   .     S
C44    C45     1.353   .     S
C44    H29     0.950   .     S
C45    C46     1.417   .     S
C45    H30     0.950   .     S
C46    N8      1.427   .     S
C46    C47     1.383   .     S
C47    H31     0.950   .     S
C47    C48     1.380   .     S
N8     O8      1.272   .     S
