data_nchem.NPN-3
_audit_creation_date              2016-12-13
_audit_creation_method            'Materials Studio'
_symmetry_space_group_name_H-M    'P1'
_symmetry_Int_Tables_number       1
_symmetry_cell_setting            triclinic
loop_
_symmetry_equiv_pos_as_xyz
  x,y,z
_cell_length_a                    15.7703
_cell_length_b                    15.7703
_cell_length_c                    7.0717
_cell_angle_alpha                 90.0000
_cell_angle_beta                  90.0000
_cell_angle_gamma                 90.0000
loop_
_atom_site_label
_atom_site_type_symbol
_atom_site_fract_x
_atom_site_fract_y
_atom_site_fract_z
_atom_site_U_iso_or_equiv
_atom_site_adp_type
_atom_site_occupancy
H1     H     0.78480   0.78700   0.08140   0.00000  Uiso   1.00
C1     C     0.80870   0.69472   0.87690   0.00000  Uiso   1.00
C2     C     0.86245   0.75327   0.74960   0.00000  Uiso   1.00
H2     H     0.89840   0.79020   0.82960   0.00000  Uiso   1.00
H3     H     0.90020   0.71840   0.66920   0.00000  Uiso   1.00
C3     C     0.86363   0.64120   0.00960   0.00000  Uiso   1.00
C4     C     0.95172   0.64814   0.01840   0.00000  Uiso   1.00
H4     H     0.98010   0.68500   0.93300   0.00000  Uiso   1.00
C5     C     0.99880   0.60261   0.14870   0.00000  Uiso   1.00
H5     H     0.05890   0.60660   0.14840   0.00000  Uiso   1.00
C6     C     0.95822   0.55107   0.28000   0.00000  Uiso   1.00
C7     C     0.87062   0.54087   0.27270   0.00000  Uiso   1.00
H6     H     0.84250   0.50430   0.35900   0.00000  Uiso   1.00
C8     C     0.82515   0.58511   0.13690   0.00000  Uiso   1.00
H7     H     0.76550   0.57700   0.13000   0.00000  Uiso   1.00
N1     N     0.01227   0.50620   0.41300   0.00000  Uiso   1.00
O1     O     0.08391   0.48190   0.35230   0.00000  Uiso   1.00
H8     H     0.71520   0.71300   0.08140   0.00000  Uiso   1.00
C9     C     0.69130   0.80528   0.87690   0.00000  Uiso   1.00
C10    C     0.63755   0.74673   0.74960   0.00000  Uiso   1.00
H9     H     0.60160   0.70980   0.82960   0.00000  Uiso   1.00
H10    H     0.59980   0.78160   0.66920   0.00000  Uiso   1.00
C11    C     0.63637   0.85880   0.00960   0.00000  Uiso   1.00
C12    C     0.54828   0.85186   0.01840   0.00000  Uiso   1.00
H11    H     0.51990   0.81500   0.93300   0.00000  Uiso   1.00
C13    C     0.50120   0.89739   0.14870   0.00000  Uiso   1.00
H12    H     0.44110   0.89340   0.14840   0.00000  Uiso   1.00
C14    C     0.54178   0.94893   0.28000   0.00000  Uiso   1.00
C15    C     0.62938   0.95913   0.27270   0.00000  Uiso   1.00
H13    H     0.65750   0.99570   0.35900   0.00000  Uiso   1.00
C16    C     0.67485   0.91489   0.13690   0.00000  Uiso   1.00
H14    H     0.73450   0.92300   0.13000   0.00000  Uiso   1.00
N2     N     0.48773   0.99380   0.41300   0.00000  Uiso   1.00
O2     O     0.41609   0.01810   0.35230   0.00000  Uiso   1.00
H15    H     0.21300   0.28480   0.58140   0.00000  Uiso   1.00
C17    C     0.30528   0.30870   0.37690   0.00000  Uiso   1.00
C18    C     0.24673   0.36245   0.24960   0.00000  Uiso   1.00
H16    H     0.20980   0.39840   0.32960   0.00000  Uiso   1.00
H17    H     0.28160   0.40020   0.16920   0.00000  Uiso   1.00
C19    C     0.35880   0.36363   0.50960   0.00000  Uiso   1.00
C20    C     0.35186   0.45172   0.51840   0.00000  Uiso   1.00
H18    H     0.31500   0.48010   0.43300   0.00000  Uiso   1.00
C21    C     0.39739   0.49880   0.64870   0.00000  Uiso   1.00
H19    H     0.39340   0.55890   0.64840   0.00000  Uiso   1.00
C22    C     0.44893   0.45822   0.78000   0.00000  Uiso   1.00
C23    C     0.45913   0.37062   0.77270   0.00000  Uiso   1.00
H20    H     0.49570   0.34250   0.85900   0.00000  Uiso   1.00
C24    C     0.41489   0.32515   0.63690   0.00000  Uiso   1.00
H21    H     0.42300   0.26550   0.63000   0.00000  Uiso   1.00
N3     N     0.49380   0.51227   0.91300   0.00000  Uiso   1.00
O3     O     0.51810   0.58391   0.85230   0.00000  Uiso   1.00
H22    H     0.28700   0.21520   0.58140   0.00000  Uiso   1.00
C25    C     0.19472   0.19130   0.37690   0.00000  Uiso   1.00
C26    C     0.25327   0.13755   0.24960   0.00000  Uiso   1.00
H23    H     0.29020   0.10160   0.32960   0.00000  Uiso   1.00
H24    H     0.21840   0.09980   0.16920   0.00000  Uiso   1.00
C27    C     0.14120   0.13637   0.50960   0.00000  Uiso   1.00
C28    C     0.14814   0.04828   0.51840   0.00000  Uiso   1.00
H25    H     0.18500   0.01990   0.43300   0.00000  Uiso   1.00
C29    C     0.10261   0.00120   0.64870   0.00000  Uiso   1.00
H26    H     0.10660   0.94110   0.64840   0.00000  Uiso   1.00
C30    C     0.05107   0.04178   0.78000   0.00000  Uiso   1.00
C31    C     0.04087   0.12938   0.77270   0.00000  Uiso   1.00
H27    H     0.00430   0.15750   0.85900   0.00000  Uiso   1.00
C32    C     0.08511   0.17485   0.63690   0.00000  Uiso   1.00
H28    H     0.07700   0.23450   0.63000   0.00000  Uiso   1.00
N4     N     0.00620   0.98773   0.91300   0.00000  Uiso   1.00
O4     O     0.98190   0.91609   0.85230   0.00000  Uiso   1.00
H29    H     0.21520   0.21300   0.91860   0.00000  Uiso   1.00
C33    C     0.19130   0.30528   0.12310   0.00000  Uiso   1.00
C34    C     0.13755   0.24673   0.25040   0.00000  Uiso   1.00
H30    H     0.10160   0.20980   0.17040   0.00000  Uiso   1.00
H31    H     0.09980   0.28160   0.33080   0.00000  Uiso   1.00
C35    C     0.13637   0.35880   0.99040   0.00000  Uiso   1.00
C36    C     0.04828   0.35186   0.98160   0.00000  Uiso   1.00
H32    H     0.01990   0.31500   0.06700   0.00000  Uiso   1.00
C37    C     0.00120   0.39739   0.85130   0.00000  Uiso   1.00
H33    H     0.94110   0.39340   0.85160   0.00000  Uiso   1.00
C38    C     0.04178   0.44893   0.72000   0.00000  Uiso   1.00
C39    C     0.12938   0.45913   0.72730   0.00000  Uiso   1.00
H34    H     0.15750   0.49570   0.64100   0.00000  Uiso   1.00
C40    C     0.17485   0.41489   0.86310   0.00000  Uiso   1.00
H35    H     0.23450   0.42300   0.87000   0.00000  Uiso   1.00
N5     N     0.98773   0.49380   0.58700   0.00000  Uiso   1.00
O5     O     0.91609   0.51810   0.64770   0.00000  Uiso   1.00
H36    H     0.28480   0.28700   0.91860   0.00000  Uiso   1.00
C41    C     0.30870   0.19472   0.12310   0.00000  Uiso   1.00
C42    C     0.36245   0.25327   0.25040   0.00000  Uiso   1.00
H37    H     0.39840   0.29020   0.17040   0.00000  Uiso   1.00
H38    H     0.40020   0.21840   0.33080   0.00000  Uiso   1.00
C43    C     0.36363   0.14120   0.99040   0.00000  Uiso   1.00
C44    C     0.45172   0.14814   0.98160   0.00000  Uiso   1.00
H39    H     0.48010   0.18500   0.06700   0.00000  Uiso   1.00
C45    C     0.49880   0.10261   0.85130   0.00000  Uiso   1.00
H40    H     0.55890   0.10660   0.85160   0.00000  Uiso   1.00
C46    C     0.45822   0.05107   0.72000   0.00000  Uiso   1.00
C47    C     0.37062   0.04087   0.72730   0.00000  Uiso   1.00
H41    H     0.34250   0.00430   0.64100   0.00000  Uiso   1.00
C48    C     0.32515   0.08511   0.86310   0.00000  Uiso   1.00
H42    H     0.26550   0.07700   0.87000   0.00000  Uiso   1.00
N6     N     0.51227   0.00620   0.58700   0.00000  Uiso   1.00
O6     O     0.58391   0.98190   0.64770   0.00000  Uiso   1.00
H43    H     0.78700   0.71520   0.41860   0.00000  Uiso   1.00
C49    C     0.69472   0.69130   0.62310   0.00000  Uiso   1.00
C50    C     0.75327   0.63755   0.75040   0.00000  Uiso   1.00
H44    H     0.79020   0.60160   0.67040   0.00000  Uiso   1.00
H45    H     0.71840   0.59980   0.83080   0.00000  Uiso   1.00
C51    C     0.64120   0.63637   0.49040   0.00000  Uiso   1.00
C52    C     0.64814   0.54828   0.48160   0.00000  Uiso   1.00
H46    H     0.68500   0.51990   0.56700   0.00000  Uiso   1.00
C53    C     0.60261   0.50120   0.35130   0.00000  Uiso   1.00
H47    H     0.60660   0.44110   0.35160   0.00000  Uiso   1.00
C54    C     0.55107   0.54178   0.22000   0.00000  Uiso   1.00
C55    C     0.54087   0.62938   0.22730   0.00000  Uiso   1.00
H48    H     0.50430   0.65750   0.14100   0.00000  Uiso   1.00
C56    C     0.58511   0.67485   0.36310   0.00000  Uiso   1.00
H49    H     0.57700   0.73450   0.37000   0.00000  Uiso   1.00
N7     N     0.50620   0.48773   0.08700   0.00000  Uiso   1.00
O7     O     0.48190   0.41609   0.14770   0.00000  Uiso   1.00
H50    H     0.71300   0.78480   0.41860   0.00000  Uiso   1.00
C57    C     0.80528   0.80870   0.62310   0.00000  Uiso   1.00
C58    C     0.74673   0.86245   0.75040   0.00000  Uiso   1.00
H51    H     0.70980   0.89840   0.67040   0.00000  Uiso   1.00
H52    H     0.78160   0.90020   0.83080   0.00000  Uiso   1.00
C59    C     0.85880   0.86363   0.49040   0.00000  Uiso   1.00
C60    C     0.85186   0.95172   0.48160   0.00000  Uiso   1.00
H53    H     0.81500   0.98010   0.56700   0.00000  Uiso   1.00
C61    C     0.89739   0.99880   0.35130   0.00000  Uiso   1.00
H54    H     0.89340   0.05890   0.35160   0.00000  Uiso   1.00
C62    C     0.94893   0.95822   0.22000   0.00000  Uiso   1.00
C63    C     0.95913   0.87062   0.22730   0.00000  Uiso   1.00
H55    H     0.99570   0.84250   0.14100   0.00000  Uiso   1.00
C64    C     0.91489   0.82515   0.36310   0.00000  Uiso   1.00
H56    H     0.92300   0.76550   0.37000   0.00000  Uiso   1.00
N8     N     0.99380   0.01227   0.08700   0.00000  Uiso   1.00
O8     O     0.01810   0.08391   0.14770   0.00000  Uiso   1.00
C65    C     0.75000   0.75000   0.99900   0.00000  Uiso   1.00
C66    C     0.25000   0.25000   0.49900   0.00000  Uiso   1.00
C67    C     0.25000   0.25000   0.00100   0.00000  Uiso   1.00
C68    C     0.75000   0.75000   0.50100   0.00000  Uiso   1.00
loop_
_geom_bond_atom_site_label_1
_geom_bond_atom_site_label_2
_geom_bond_distance
_geom_bond_site_symmetry_2
_ccdc_geom_bond_type
C1     C65     1.537   .     S
C1     C2      1.543   .     S
C1     C50     1.542   .     S
C2     H3      0.990   .     S
C2     C57     1.542   .     S
C2     H2      0.990   .     S
C3     C8      1.400   .     S
C3     C4      1.395   .     S
C4     C5      1.384   .     S
C5     C6      1.390   .     S
C6     C7      1.392   .     S
C7     H6      0.950   .     S
C7     C8      1.387   .     S
C8     H7      0.951   .     S
N1     O1      1.268   .     S
C9     C65     1.537   .     S
C9     C58     1.542   .     S
C9     C10     1.543   .     S
C10    H10     0.990   .     S
C10    C49     1.542   .     S
C10    H9      0.990   .     S
C11    C12     1.395   .     S
C11    C16     1.400   .     S
C12    C13     1.384   .     S
C13    H12     0.950   .     S
C13    C14     1.390   .     S
C14    N2      1.453   .     S
C14    C15     1.392   .     S
C15    H13     0.950   .     S
C15    C16     1.387   .     S
C16    H14     0.951   .     S
H15    C66     0.991   .     S
C17    C66     1.537   .     S
C17    C18     1.543   .     S
C17    C42     1.542   .     S
C17    C19     1.531   .     S
C18    H17     0.990   .     S
C18    C33     1.542   .     S
C18    H16     0.990   .     S
C19    C20     1.395   .     S
C19    C24     1.400   .     S
C20    C21     1.384   .     S
C20    H18     0.950   .     S
C21    H19     0.950   .     S
C21    C22     1.390   .     S
C22    N3      1.453   .     S
C22    C23     1.392   .     S
C23    H20     0.950   .     S
C23    C24     1.387   .     S
C24    H21     0.951   .     S
N3     O3      1.268   .     S
H22    C66     0.991   .     S
C25    C66     1.537   .     S
C25    C34     1.542   .     S
C25    C26     1.543   .     S
C25    C27     1.531   .     S
C26    C41     1.542   .     S
C26    H24     0.990   .     S
C26    H23     0.990   .     S
C27    C32     1.400   .     S
C27    C28     1.395   .     S
C28    C29     1.384   .     S
C28    H25     0.950   .     S
C29    C30     1.390   .     S
C30    C31     1.392   .     S
C31    H27     0.950   .     S
C31    C32     1.387   .     S
C32    H28     0.951   .     S
C33    C34     1.543   .     S
C33    C67     1.537   .     S
C34    H30     0.990   .     S
C34    H31     0.990   .     S
C35    C40     1.400   .     S
C35    C36     1.395   .     S
C36    C37     1.384   .     S
C37    C38     1.390   .     S
C38    C39     1.392   .     S
C39    H34     0.950   .     S
C39    C40     1.387   .     S
C40    H35     0.951   .     S
N5     O5      1.268   .     S
C41    C67     1.537   .     S
C41    C42     1.543   .     S
C42    H37     0.990   .     S
C42    H38     0.990   .     S
C43    C44     1.395   .     S
C43    C48     1.400   .     S
C44    C45     1.384   .     S
C45    H40     0.950   .     S
C45    C46     1.390   .     S
C46    N6      1.453   .     S
C46    C47     1.392   .     S
C47    H41     0.950   .     S
C47    C48     1.387   .     S
C48    H42     0.951   .     S
H43    C68     0.991   .     S
C49    C68     1.537   .     S
C49    C50     1.543   .     S
C49    C51     1.531   .     S
C50    H44     0.990   .     S
C50    H45     0.990   .     S
C51    C56     1.400   .     S
C51    C52     1.395   .     S
C52    C53     1.384   .     S
C52    H46     0.950   .     S
C53    H47     0.950   .     S
C53    C54     1.390   .     S
C54    N7      1.453   .     S
C54    C55     1.392   .     S
C55    H48     0.950   .     S
C55    C56     1.387   .     S
C56    H49     0.951   .     S
N7     O7      1.268   .     S
H50    C68     0.991   .     S
C57    C58     1.543   .     S
C57    C68     1.537   .     S
C57    C59     1.531   .     S
C58    H51     0.990   .     S
C58    H52     0.990   .     S
C59    C64     1.400   .     S
C59    C60     1.395   .     S
C60    C61     1.384   .     S
C60    H53     0.950   .     S
C61    C62     1.390   .     S
C62    C63     1.392   .     S
C63    H55     0.950   .     S
C63    C64     1.387   .     S
C64    H56     0.951   .     S
