data_NTU-COF-2
_audit_creation_date              2016-12-13
_audit_creation_method            'Materials Studio'
_symmetry_space_group_name_H-M    'P1'
_symmetry_Int_Tables_number       1
_symmetry_cell_setting            triclinic
loop_
_symmetry_equiv_pos_as_xyz
  x,y,z
_cell_length_a                    33.7014
_cell_length_b                    33.7014
_cell_length_c                    3.5803
_cell_angle_alpha                 90.0000
_cell_angle_beta                  90.0000
_cell_angle_gamma                 120.0000
loop_
_atom_site_label
_atom_site_type_symbol
_atom_site_fract_x
_atom_site_fract_y
_atom_site_fract_z
_atom_site_U_iso_or_equiv
_atom_site_adp_type
_atom_site_occupancy
C1     C     0.28772   0.65974   0.50000   0.00000  Uiso   1.00
C2     C     0.34025   0.62798   0.50000   0.00000  Uiso   1.00
C3     C     0.37202   0.71228   0.50000   0.00000  Uiso   1.00
C4     C     0.29475   0.62097   0.50000   0.00000  Uiso   1.00
C5     C     0.37903   0.67378   0.50000   0.00000  Uiso   1.00
C6     C     0.32622   0.70525   0.50000   0.00000  Uiso   1.00
C7     C     0.25531   0.57601   0.50000   0.00000  Uiso   1.00
C8     C     0.42398   0.67930   0.50000   0.00000  Uiso   1.00
C9     C     0.32070   0.74469   0.50000   0.00000  Uiso   1.00
C10    C     0.21109   0.56956   0.50000   0.00000  Uiso   1.00
C11    C     0.43044   0.64153   0.50000   0.00000  Uiso   1.00
C12    C     0.35847   0.78891   0.50000   0.00000  Uiso   1.00
C13    C     0.20438   0.60679   0.50000   0.00000  Uiso   1.00
C14    C     0.39320   0.59759   0.50000   0.00000  Uiso   1.00
C15    C     0.40241   0.79562   0.50000   0.00000  Uiso   1.00
C16    C     0.24168   0.65129   0.50000   0.00000  Uiso   1.00
C17    C     0.34871   0.59039   0.50000   0.00000  Uiso   1.00
C18    C     0.40961   0.75832   0.50000   0.00000  Uiso   1.00
O19    O     0.15934   0.59317   0.50000   0.00000  Uiso   1.00
O20    O     0.40683   0.56616   0.50000   0.00000  Uiso   1.00
O21    O     0.43384   0.84066   0.50000   0.00000  Uiso   1.00
B22    B     0.13667   0.54384   0.50000   0.00000  Uiso   1.00
B23    B     0.45616   0.59283   0.50000   0.00000  Uiso   1.00
B24    B     0.40717   0.86333   0.50000   0.00000  Uiso   1.00
O25    O     0.17071   0.52987   0.50000   0.00000  Uiso   1.00
O26    O     0.47013   0.64084   0.50000   0.00000  Uiso   1.00
O27    O     0.35916   0.82929   0.50000   0.00000  Uiso   1.00
H28    H     0.25685   0.54671   0.50000   0.00000  Uiso   1.00
H29    H     0.45329   0.71014   0.50000   0.00000  Uiso   1.00
H30    H     0.28986   0.74314   0.50000   0.00000  Uiso   1.00
H31    H     0.23335   0.67635   0.50000   0.00000  Uiso   1.00
H32    H     0.32365   0.55700   0.50000   0.00000  Uiso   1.00
H33    H     0.44300   0.76665   0.50000   0.00000  Uiso   1.00
C34    C     0.84457   0.44321   0.50000   0.00000  Uiso   1.00
C35    C     0.55679   0.40136   0.50000   0.00000  Uiso   1.00
C36    C     0.59864   0.15543   0.50000   0.00000  Uiso   1.00
C37    C     0.79656   0.42304   0.50000   0.00000  Uiso   1.00
C38    C     0.57696   0.37352   0.50000   0.00000  Uiso   1.00
C39    C     0.62647   0.20344   0.50000   0.00000  Uiso   1.00
H40    H     0.86442   0.47814   0.50000   0.00000  Uiso   1.00
H41    H     0.52186   0.38628   0.50000   0.00000  Uiso   1.00
H42    H     0.61372   0.13558   0.50000   0.00000  Uiso   1.00
H43    H     0.78520   0.44576   0.50000   0.00000  Uiso   1.00
H44    H     0.55424   0.33944   0.50000   0.00000  Uiso   1.00
H45    H     0.66056   0.21480   0.50000   0.00000  Uiso   1.00
C46    C     0.63184   0.46854   0.50000   0.00000  Uiso   1.00
C47    C     0.53146   0.16331   0.50000   0.00000  Uiso   1.00
C48    C     0.83669   0.36816   0.50000   0.00000  Uiso   1.00
C49    C     0.65159   0.44029   0.50000   0.00000  Uiso   1.00
C50    C     0.55971   0.21130   0.50000   0.00000  Uiso   1.00
C51    C     0.78870   0.34841   0.50000   0.00000  Uiso   1.00
H52    H     0.65287   0.50321   0.50000   0.00000  Uiso   1.00
H53    H     0.49679   0.14966   0.50000   0.00000  Uiso   1.00
H54    H     0.85034   0.34713   0.50000   0.00000  Uiso   1.00
H55    H     0.68631   0.45753   0.50000   0.00000  Uiso   1.00
H56    H     0.54247   0.22877   0.50000   0.00000  Uiso   1.00
H57    H     0.77122   0.31369   0.50000   0.00000  Uiso   1.00
C58    C     0.64592   0.36248   0.50000   0.00000  Uiso   1.00
C59    C     0.63752   0.28344   0.50000   0.00000  Uiso   1.00
C60    C     0.71656   0.35408   0.50000   0.00000  Uiso   1.00
C61    C     0.58394   0.44929   0.50000   0.00000  Uiso   1.00
C62    C     0.55071   0.13465   0.50000   0.00000  Uiso   1.00
C63    C     0.86534   0.41605   0.50000   0.00000  Uiso   1.00
C64    C     0.62538   0.39134   0.50000   0.00000  Uiso   1.00
C65    C     0.60865   0.23403   0.50000   0.00000  Uiso   1.00
C66    C     0.76597   0.37462   0.50000   0.00000  Uiso   1.00
C67    C     0.61977   0.31383   0.50000   0.00000  Uiso   1.00
C68    C     0.68617   0.30594   0.50000   0.00000  Uiso   1.00
C69    C     0.69406   0.38023   0.50000   0.00000  Uiso   1.00
H70    H     0.71394   0.41429   0.50000   0.00000  Uiso   1.00
H71    H     0.58571   0.29965   0.50000   0.00000  Uiso   1.00
H72    H     0.70034   0.28606   0.50000   0.00000  Uiso   1.00
N73    N     0.56163   0.47335   0.50000   0.00000  Uiso   1.00
C74    C     0.57726   0.51894   0.50000   0.00000  Uiso   1.00
H75    H     0.61179   0.54130   0.50000   0.00000  Uiso   1.00
C76    C     0.54707   0.53650   0.50000   0.00000  Uiso   1.00
C77    C     0.56476   0.58444   0.50000   0.00000  Uiso   1.00
C78    C     0.53536   0.60286   0.50000   0.00000  Uiso   1.00
C79    C     0.48744   0.57366   0.50000   0.00000  Uiso   1.00
C80    C     0.46942   0.52584   0.50000   0.00000  Uiso   1.00
C81    C     0.49887   0.50755   0.50000   0.00000  Uiso   1.00
H82    H     0.59938   0.60644   0.50000   0.00000  Uiso   1.00
H83    H     0.54929   0.63765   0.50000   0.00000  Uiso   1.00
H84    H     0.43481   0.50387   0.50000   0.00000  Uiso   1.00
H85    H     0.48467   0.47270   0.50000   0.00000  Uiso   1.00
N86    N     0.52664   0.08827   0.50000   0.00000  Uiso   1.00
C87    C     0.48105   0.05831   0.50000   0.00000  Uiso   1.00
H88    H     0.45869   0.07049   0.50000   0.00000  Uiso   1.00
C89    C     0.46350   0.01057   0.50000   0.00000  Uiso   1.00
C90    C     0.41555   0.98031   0.50000   0.00000  Uiso   1.00
C91    C     0.39714   0.93251   0.50000   0.00000  Uiso   1.00
C92    C     0.42634   0.91377   0.50000   0.00000  Uiso   1.00
C93    C     0.47415   0.94358   0.50000   0.00000  Uiso   1.00
C94    C     0.49245   0.99132   0.50000   0.00000  Uiso   1.00
H95    H     0.39356   0.99293   0.50000   0.00000  Uiso   1.00
H96    H     0.36235   0.91164   0.50000   0.00000  Uiso   1.00
H97    H     0.49613   0.93094   0.50000   0.00000  Uiso   1.00
H98    H     0.52730   0.01197   0.50000   0.00000  Uiso   1.00
N99    N     0.91173   0.43837   0.50000   0.00000  Uiso   1.00
C100   C     0.94169   0.42274   0.50000   0.00000  Uiso   1.00
H101   H     0.92951   0.38821   0.50000   0.00000  Uiso   1.00
C102   C     0.98943   0.45293   0.50000   0.00000  Uiso   1.00
C103   C     0.01969   0.43524   0.50000   0.00000  Uiso   1.00
C104   C     0.06749   0.46463   0.50000   0.00000  Uiso   1.00
C105   C     0.08622   0.51256   0.50000   0.00000  Uiso   1.00
C106   C     0.05642   0.53058   0.50000   0.00000  Uiso   1.00
C107   C     0.00867   0.50113   0.50000   0.00000  Uiso   1.00
H108   H     0.00706   0.40062   0.50000   0.00000  Uiso   1.00
H109   H     0.08836   0.45071   0.50000   0.00000  Uiso   1.00
H110   H     0.06905   0.56519   0.50000   0.00000  Uiso   1.00
H111   H     0.98803   0.51533   0.50000   0.00000  Uiso   1.00
loop_
_geom_bond_atom_site_label_1
_geom_bond_atom_site_label_2
_geom_bond_distance
_geom_bond_site_symmetry_2
_ccdc_geom_bond_type
C1     C4      1.440   .     S
C1     C16     1.431   .     S
C1     C6      1.430   .     S
C2     C4      1.430   .     S
C2     C5      1.440   .     S
C2     C17     1.431   .     S
C3     C5      1.430   .     S
C3     C6      1.440   .     S
C3     C18     1.431   .     S
C4     C7      1.431   .     S
C5     C8      1.431   .     S
C6     C9      1.431   .     S
C7     H28     1.015   .     S
C7     C10     1.394   .     S
C8     H29     1.015   .     S
C8     C11     1.394   .     S
C9     H30     1.015   .     S
C9     C12     1.394   .     S
C10    C13     1.382   .     S
C10    O25     1.349   .     S
C11    O26     1.349   .     S
C11    C14     1.382   .     S
C12    O27     1.349   .     S
C12    C15     1.382   .     S
C13    C16     1.394   .     S
C13    O19     1.349   .     S
C14    C17     1.394   .     S
C14    O20     1.349   .     S
C15    O21     1.349   .     S
C15    C18     1.394   .     S
C16    H31     1.015   .     S
C17    H32     1.015   .     S
C18    H33     1.015   .     S
O19    B22     1.441   .     S
O20    B23     1.441   .     S
O21    B24     1.441   .     S
B22    C105    1.486   .     S
B22    O25     1.442   .     S
B23    C79     1.486   .     S
B23    O26     1.442   .     S
B24    C92     1.486   .     S
B24    O27     1.442   .     S
C34    H40     1.023   .     S
C34    C37     1.407   .     S
C34    C63     1.403   .     S
C35    H41     1.023   .     S
C35    C38     1.407   .     S
C35    C61     1.403   .     S
C36    C62     1.403   .     S
C36    H42     1.023   .     S
C36    C39     1.407   .     S
C37    C66     1.429   .     S
C37    H43     1.013   .     S
C38    C64     1.429   .     S
C38    H44     1.013   .     S
C39    C65     1.429   .     S
C39    H45     1.013   .     S
C46    C61     1.407   .     S
C46    C49     1.408   .     S
C46    H52     1.020   .     S
C47    H53     1.020   .     S
C47    C62     1.407   .     S
C47    C50     1.408   .     S
C48    C63     1.407   .     S
C48    H54     1.020   .     S
C48    C51     1.408   .     S
C49    H55     1.013   .     S
C49    C64     1.430   .     S
C50    H56     1.013   .     S
C50    C65     1.430   .     S
C51    H57     1.013   .     S
C51    C66     1.430   .     S
C58    C67     1.421   .     S
C58    C64     1.449   .     S
C58    C69     1.421   .     S
C59    C67     1.421   .     S
C59    C68     1.421   .     S
C59    C65     1.449   .     S
C60    C68     1.421   .     S
C60    C69     1.421   .     S
C60    C66     1.449   .     S
C61    N73     1.354   .     S
C62    N86     1.354   .     S
C63    N99     1.354   .     S
C67    H71     0.999   .     S
C68    H72     0.999   .     S
C69    H70     0.999   .     S
N73    C74     1.352   .     S
C74    H75     1.022   .     S
C74    C76     1.410   .     S
C76    C81     1.416   .     S
C76    C77     1.415   .     S
C77    H82     1.023   .     S
C77    C78     1.407   .     S
C78    C79     1.410   .     S
C78    H83     1.022   .     S
C79    C80     1.410   .     S
C80    H84     1.022   .     S
C80    C81     1.406   .     S
C81    H85     1.023   .     S
N86    C87     1.352   .     S
C87    C89     1.410   .     S
C87    H88     1.022   .     S
C90    H95     1.023   .     S
C90    C91     1.407   .     S
C91    H96     1.022   .     S
C91    C92     1.410   .     S
C92    C93     1.410   .     S
C93    H97     1.022   .     S
C93    C94     1.406   .     S
N99    C100    1.352   .     S
C100   H101    1.022   .     S
C100   C102    1.410   .     S
C103   C104    1.407   .     S
C103   H108    1.023   .     S
C104   H109    1.022   .     S
C104   C105    1.410   .     S
C105   C106    1.410   .     S
C106   C107    1.406   .     S
C106   H110    1.022   .     S
