data_NTU-COF-1
_audit_creation_date              2016-12-13
_audit_creation_method            'Materials Studio'
_symmetry_space_group_name_H-M    'P1'
_symmetry_Int_Tables_number       1
_symmetry_cell_setting            triclinic
loop_
_symmetry_equiv_pos_as_xyz
  x,y,z
_cell_length_a                    25.4690
_cell_length_b                    25.4690
_cell_length_c                    3.5260
_cell_angle_alpha                 90.0000
_cell_angle_beta                  90.0000
_cell_angle_gamma                 120.0000
loop_
_atom_site_label
_atom_site_type_symbol
_atom_site_fract_x
_atom_site_fract_y
_atom_site_fract_z
_atom_site_U_iso_or_equiv
_atom_site_adp_type
_atom_site_occupancy
C1     C     0.49837   0.38066   0.50000   0.00000  Uiso   1.00
C2     C     0.53479   0.35431   0.50000   0.00000  Uiso   1.00
C3     C     0.59799   0.39059   0.50000   0.00000  Uiso   1.00
C4     C     0.62473   0.45408   0.50000   0.00000  Uiso   1.00
C5     C     0.58808   0.48084   0.50000   0.00000  Uiso   1.00
C6     C     0.52512   0.44415   0.50000   0.00000  Uiso   1.00
N1     N     0.48847   0.47089   0.50000   0.00000  Uiso   1.00
C7     C     0.40489   0.61372   0.50000   0.00000  Uiso   1.00
C8     C     0.46828   0.65045   0.50000   0.00000  Uiso   1.00
C9     C     0.37834   0.55068   0.50000   0.00000  Uiso   1.00
C10    C     0.50492   0.62369   0.50000   0.00000  Uiso   1.00
C11    C     0.41499   0.52394   0.50000   0.00000  Uiso   1.00
C12    C     0.47837   0.56066   0.50000   0.00000  Uiso   1.00
C13    C     0.51279   0.53161   0.50000   0.00000  Uiso   1.00
H1     H     0.44668   0.35066   0.50000   0.00000  Uiso   1.00
H2     H     0.51310   0.30262   0.50000   0.00000  Uiso   1.00
H3     H     0.67642   0.48401   0.50000   0.00000  Uiso   1.00
H4     H     0.60990   0.53253   0.50000   0.00000  Uiso   1.00
H5     H     0.49002   0.70214   0.50000   0.00000  Uiso   1.00
H6     H     0.32665   0.52075   0.50000   0.00000  Uiso   1.00
H7     H     0.55662   0.65358   0.50000   0.00000  Uiso   1.00
H8     H     0.39318   0.47224   0.50000   0.00000  Uiso   1.00
H9     H     0.56464   0.55972   0.50000   0.00000  Uiso   1.00
H10    H     0.71979   0.44721   0.50000   0.00000  Uiso   1.00
B1     B     0.36975   0.63985   0.50000   0.00000  Uiso   1.00
O1     O     0.30865   0.60497   0.50000   0.00000  Uiso   1.00
C14    C     0.63451   0.36338   0.50000   0.00000  Uiso   1.00
C15    C     0.69781   0.39767   0.50000   0.00000  Uiso   1.00
C16    C     0.61934   0.11771   0.50000   0.00000  Uiso   1.00
C17    C     0.64569   0.18048   0.50000   0.00000  Uiso   1.00
C18    C     0.60941   0.20740   0.50000   0.00000  Uiso   1.00
C19    C     0.54592   0.17065   0.50000   0.00000  Uiso   1.00
C20    C     0.51916   0.10724   0.50000   0.00000  Uiso   1.00
C21    C     0.55585   0.08097   0.50000   0.00000  Uiso   1.00
N2     N     0.52911   0.01758   0.50000   0.00000  Uiso   1.00
C22    C     0.38628   0.79117   0.50000   0.00000  Uiso   1.00
C23    C     0.34955   0.81783   0.50000   0.00000  Uiso   1.00
C24    C     0.44932   0.82766   0.50000   0.00000  Uiso   1.00
C25    C     0.37631   0.88123   0.50000   0.00000  Uiso   1.00
C26    C     0.47606   0.89105   0.50000   0.00000  Uiso   1.00
C27    C     0.43934   0.91771   0.50000   0.00000  Uiso   1.00
C28    C     0.46839   0.98118   0.50000   0.00000  Uiso   1.00
H11    H     0.64934   0.09602   0.50000   0.00000  Uiso   1.00
H12    H     0.69738   0.21048   0.50000   0.00000  Uiso   1.00
H13    H     0.51599   0.19241   0.50000   0.00000  Uiso   1.00
H14    H     0.46747   0.07737   0.50000   0.00000  Uiso   1.00
H15    H     0.29786   0.78788   0.50000   0.00000  Uiso   1.00
H16    H     0.47925   0.80590   0.50000   0.00000  Uiso   1.00
H17    H     0.34642   0.90304   0.50000   0.00000  Uiso   1.00
H18    H     0.52776   0.92094   0.50000   0.00000  Uiso   1.00
H19    H     0.44028   0.00492   0.50000   0.00000  Uiso   1.00
H20    H     0.55279   0.27258   0.50000   0.00000  Uiso   1.00
B2     B     0.36015   0.72990   0.50000   0.00000  Uiso   1.00
O2     O     0.39503   0.70368   0.50000   0.00000  Uiso   1.00
C29    C     0.63662   0.27113   0.50000   0.00000  Uiso   1.00
C30    C     0.60233   0.30014   0.50000   0.00000  Uiso   1.00
C31    C     0.88229   0.50163   0.50000   0.00000  Uiso   1.00
C32    C     0.81952   0.46521   0.50000   0.00000  Uiso   1.00
C33    C     0.79260   0.40201   0.50000   0.00000  Uiso   1.00
C34    C     0.82935   0.37527   0.50000   0.00000  Uiso   1.00
C35    C     0.89276   0.41192   0.50000   0.00000  Uiso   1.00
C36    C     0.91903   0.47488   0.50000   0.00000  Uiso   1.00
N3     N     0.98242   0.51153   0.50000   0.00000  Uiso   1.00
C37    C     0.20883   0.59511   0.50000   0.00000  Uiso   1.00
C38    C     0.18217   0.53172   0.50000   0.00000  Uiso   1.00
C39    C     0.17234   0.62166   0.50000   0.00000  Uiso   1.00
C40    C     0.11877   0.49508   0.50000   0.00000  Uiso   1.00
C41    C     0.10895   0.58501   0.50000   0.00000  Uiso   1.00
C42    C     0.08229   0.52163   0.50000   0.00000  Uiso   1.00
C43    C     0.01882   0.48721   0.50000   0.00000  Uiso   1.00
H21    H     0.90398   0.55332   0.50000   0.00000  Uiso   1.00
H22    H     0.78952   0.48690   0.50000   0.00000  Uiso   1.00
H23    H     0.80759   0.32358   0.50000   0.00000  Uiso   1.00
H24    H     0.92263   0.39010   0.50000   0.00000  Uiso   1.00
H25    H     0.21212   0.50998   0.50000   0.00000  Uiso   1.00
H26    H     0.19410   0.67335   0.50000   0.00000  Uiso   1.00
H27    H     0.09696   0.44338   0.50000   0.00000  Uiso   1.00
H28    H     0.07906   0.60682   0.50000   0.00000  Uiso   1.00
H29    H     0.99508   0.43536   0.50000   0.00000  Uiso   1.00
H30    H     0.72742   0.28021   0.50000   0.00000  Uiso   1.00
B3     B     0.27010   0.63025   0.50000   0.00000  Uiso   1.00
O3     O     0.29632   0.69135   0.50000   0.00000  Uiso   1.00
C44    C     0.72887   0.36549   0.50000   0.00000  Uiso   1.00
C45    C     0.69986   0.30219   0.50000   0.00000  Uiso   1.00
loop_
_geom_bond_atom_site_label_1
_geom_bond_atom_site_label_2
_geom_bond_distance
_geom_bond_site_symmetry_2
_ccdc_geom_bond_type
C1     H1      1.145   .     S
C1     C2      1.390   .     S
C1     C6      1.406   .     S
C2     C3      1.399   .     S
C2     H2      1.145   .     S
C3     C14     1.411   .     S
C3     C4      1.406   .     S
C4     C5      1.404   .     S
C4     H3      1.145   .     S
C5     C6      1.395   .     S
C5     H4      1.145   .     S
C6     N1      1.404   .     S
N1     C13     1.348   .     S
C7     B1      1.356   .     S
C7     C8      1.404   .     S
C7     C9      1.396   .     S
C8     H5      1.145   .     S
C8     C10     1.404   .     S
C9     H6      1.145   .     S
C9     C11     1.404   .     S
C10    H7      1.145   .     S
C10    C12     1.396   .     S
C11    C12     1.404   .     S
C11    H8      1.145   .     S
C12    C13     1.402   .     S
C13    H9      1.145   .     S
H10    C15     1.095   .     S
B1     O1      1.352   .     S
B1     O2      1.418   .     S
O1     B3      1.418   .     S
C14    C15     1.398   .     S
C14    C30     1.395   .     S
C15    C44     1.395   .     S
C16    H11     1.145   .     S
C16    C21     1.406   .     S
C16    C17     1.390   .     S
C17    C18     1.399   .     S
C17    H12     1.145   .     S
C18    C19     1.406   .     S
C18    C29     1.411   .     S
C19    H13     1.145   .     S
C19    C20     1.404   .     S
C20    C21     1.395   .     S
C20    H14     1.145   .     S
C21    N2      1.404   .     S
C22    B2      1.356   .     S
C22    C23     1.404   .     S
C22    C24     1.396   .     S
C23    C25     1.404   .     S
C23    H15     1.145   .     S
C24    H16     1.145   .     S
C24    C26     1.404   .     S
C25    C27     1.396   .     S
C25    H17     1.145   .     S
C26    H18     1.145   .     S
C26    C27     1.404   .     S
C27    C28     1.402   .     S
H20    C30     1.095   .     S
B2     O3      1.418   .     S
B2     O2      1.352   .     S
C29    C45     1.395   .     S
C29    C30     1.398   .     S
C31    H21     1.145   .     S
C31    C36     1.406   .     S
C31    C32     1.390   .     S
C32    C33     1.399   .     S
C32    H22     1.145   .     S
C33    C44     1.411   .     S
C33    C34     1.406   .     S
C34    H23     1.145   .     S
C34    C35     1.404   .     S
C35    C36     1.395   .     S
C35    H24     1.145   .     S
C36    N3      1.404   .     S
C37    C39     1.396   .     S
C37    B3      1.356   .     S
C37    C38     1.404   .     S
C38    C40     1.404   .     S
C38    H25     1.145   .     S
C39    C41     1.404   .     S
C39    H26     1.145   .     S
C40    C42     1.396   .     S
C40    H27     1.145   .     S
C41    H28     1.145   .     S
C41    C42     1.404   .     S
C42    C43     1.402   .     S
H30    C45     1.095   .     S
B3     O3      1.352   .     S
C44    C45     1.398   .     S
