data_NUS-10
_audit_creation_date              2016-12-13
_audit_creation_method            'Materials Studio'
_symmetry_space_group_name_H-M    'P1'
_symmetry_Int_Tables_number       1
_symmetry_cell_setting            triclinic
loop_
_symmetry_equiv_pos_as_xyz
  x,y,z
_cell_length_a                    22.8959
_cell_length_b                    22.8959
_cell_length_c                    5.5700
_cell_angle_alpha                 90.0000
_cell_angle_beta                  90.0000
_cell_angle_gamma                 120.0000
loop_
_atom_site_label
_atom_site_type_symbol
_atom_site_fract_x
_atom_site_fract_y
_atom_site_fract_z
_atom_site_U_iso_or_equiv
_atom_site_adp_type
_atom_site_occupancy
H1     H     0.37867   0.44849   0.38601   0.00000  Uiso   1.00
H2     H     0.55151   0.93018   0.38601   0.00000  Uiso   1.00
H3     H     0.06982   0.62133   0.38601   0.00000  Uiso   1.00
H4     H     0.62133   0.55151   0.38601   0.00000  Uiso   1.00
H5     H     0.44849   0.06982   0.38601   0.00000  Uiso   1.00
H6     H     0.93018   0.37867   0.38601   0.00000  Uiso   1.00
H7     H     0.65892   0.47976   0.43307   0.00000  Uiso   1.00
H8     H     0.52024   0.17916   0.43307   0.00000  Uiso   1.00
H9     H     0.82084   0.34108   0.43307   0.00000  Uiso   1.00
H10    H     0.34108   0.52024   0.43307   0.00000  Uiso   1.00
H11    H     0.47976   0.82084   0.43307   0.00000  Uiso   1.00
H12    H     0.17916   0.65892   0.43307   0.00000  Uiso   1.00
C13    C     0.54113   0.57074   0.38246   0.00000  Uiso   1.00
C14    C     0.42926   0.97038   0.38246   0.00000  Uiso   1.00
C15    C     0.02962   0.45888   0.38246   0.00000  Uiso   1.00
C16    C     0.45888   0.42926   0.38246   0.00000  Uiso   1.00
C17    C     0.57074   0.02962   0.38246   0.00000  Uiso   1.00
C18    C     0.97038   0.54113   0.38246   0.00000  Uiso   1.00
C19    C     0.57007   0.52889   0.38662   0.00000  Uiso   1.00
C20    C     0.47111   0.04117   0.38662   0.00000  Uiso   1.00
C21    C     0.95883   0.42993   0.38662   0.00000  Uiso   1.00
C22    C     0.42993   0.47111   0.38662   0.00000  Uiso   1.00
C23    C     0.52889   0.95883   0.38662   0.00000  Uiso   1.00
C24    C     0.04117   0.57007   0.38662   0.00000  Uiso   1.00
C25    C     0.53014   0.45774   0.38905   0.00000  Uiso   1.00
C26    C     0.54226   0.07240   0.38905   0.00000  Uiso   1.00
C27    C     0.92760   0.46986   0.38905   0.00000  Uiso   1.00
C28    C     0.46986   0.54226   0.38905   0.00000  Uiso   1.00
C29    C     0.45774   0.92760   0.38905   0.00000  Uiso   1.00
C30    C     0.07240   0.53014   0.38905   0.00000  Uiso   1.00
C31    C     0.62191   0.43018   0.41948   0.00000  Uiso   1.00
C32    C     0.56982   0.19173   0.41948   0.00000  Uiso   1.00
C33    C     0.80827   0.37809   0.41948   0.00000  Uiso   1.00
C34    C     0.37809   0.56982   0.41948   0.00000  Uiso   1.00
C35    C     0.43018   0.80827   0.41948   0.00000  Uiso   1.00
C36    C     0.19173   0.62191   0.41948   0.00000  Uiso   1.00
S37    S     0.59530   0.65805   0.36722   0.00000  Uiso   1.00
S38    S     0.34195   0.93725   0.36722   0.00000  Uiso   1.00
S39    S     0.06275   0.40470   0.36722   0.00000  Uiso   1.00
S40    S     0.40470   0.34195   0.36722   0.00000  Uiso   1.00
S41    S     0.65805   0.06275   0.36722   0.00000  Uiso   1.00
S42    S     0.93725   0.59530   0.36722   0.00000  Uiso   1.00
O43    O     0.43434   0.30689   0.17071   0.00000  Uiso   1.00
O44    O     0.69311   0.12745   0.17071   0.00000  Uiso   1.00
O45    O     0.87255   0.56566   0.17071   0.00000  Uiso   1.00
O46    O     0.56566   0.69311   0.17071   0.00000  Uiso   1.00
O47    O     0.30689   0.87255   0.17071   0.00000  Uiso   1.00
O48    O     0.12745   0.43434   0.17071   0.00000  Uiso   1.00
O49    O     0.33202   0.32342   0.27306   0.00000  Uiso   1.00
O50    O     0.67658   0.00860   0.27306   0.00000  Uiso   1.00
O51    O     0.99141   0.66798   0.27306   0.00000  Uiso   1.00
O52    O     0.66799   0.67658   0.27306   0.00000  Uiso   1.00
O53    O     0.32342   0.99141   0.27306   0.00000  Uiso   1.00
O54    O     0.00860   0.33202   0.27306   0.00000  Uiso   1.00
O55    O     0.39804   0.30895   0.62424   0.00000  Uiso   1.00
O56    O     0.69105   0.08909   0.62424   0.00000  Uiso   1.00
O57    O     0.91091   0.60196   0.62424   0.00000  Uiso   1.00
O58    O     0.60196   0.69105   0.62424   0.00000  Uiso   1.00
O59    O     0.30895   0.91091   0.62424   0.00000  Uiso   1.00
O60    O     0.08909   0.39804   0.62424   0.00000  Uiso   1.00
H61    H     0.40396   0.29424   0.03074   0.00000  Uiso   1.00
H62    H     0.70576   0.10972   0.03074   0.00000  Uiso   1.00
H63    H     0.89028   0.59604   0.03074   0.00000  Uiso   1.00
H64    H     0.59604   0.70576   0.03074   0.00000  Uiso   1.00
H65    H     0.29424   0.89028   0.03074   0.00000  Uiso   1.00
H66    H     0.10972   0.40396   0.03074   0.00000  Uiso   1.00
N67    N     0.55683   0.41599   0.39494   0.00000  Uiso   1.00
H68    H     0.52361   0.36778   0.37797   0.00000  Uiso   1.00
N69    N     0.58401   0.14084   0.39494   0.00000  Uiso   1.00
H70    H     0.63222   0.15583   0.37797   0.00000  Uiso   1.00
N71    N     0.85916   0.44317   0.39494   0.00000  Uiso   1.00
H72    H     0.84417   0.47639   0.37797   0.00000  Uiso   1.00
N73    N     0.44317   0.58401   0.39494   0.00000  Uiso   1.00
H74    H     0.47639   0.63222   0.37797   0.00000  Uiso   1.00
N75    N     0.41599   0.85916   0.39494   0.00000  Uiso   1.00
H76    H     0.36778   0.84417   0.37797   0.00000  Uiso   1.00
N77    N     0.14084   0.55683   0.39494   0.00000  Uiso   1.00
H78    H     0.15583   0.52361   0.37797   0.00000  Uiso   1.00
C79    C     0.59754   0.31043   0.42787   0.00000  Uiso   1.00
C80    C     0.64295   0.38108   0.42505   0.00000  Uiso   1.00
C81    C     0.68957   0.28712   0.42787   0.00000  Uiso   1.00
C82    C     0.61892   0.26187   0.42505   0.00000  Uiso   1.00
C83    C     0.71288   0.40246   0.42787   0.00000  Uiso   1.00
C84    C     0.73813   0.35705   0.42505   0.00000  Uiso   1.00
C85    C     0.40246   0.68957   0.42787   0.00000  Uiso   1.00
C86    C     0.35705   0.61892   0.42505   0.00000  Uiso   1.00
C87    C     0.31043   0.71288   0.42787   0.00000  Uiso   1.00
C88    C     0.38108   0.73813   0.42505   0.00000  Uiso   1.00
C89    C     0.28712   0.59754   0.42787   0.00000  Uiso   1.00
C90    C     0.26187   0.64295   0.42505   0.00000  Uiso   1.00
O91    O     0.53545   0.28911   0.43582   0.00000  Uiso   1.00
O92    O     0.71089   0.24634   0.43582   0.00000  Uiso   1.00
O93    O     0.75366   0.46455   0.43582   0.00000  Uiso   1.00
O94    O     0.46455   0.71089   0.43582   0.00000  Uiso   1.00
O95    O     0.28911   0.75366   0.43582   0.00000  Uiso   1.00
O96    O     0.24634   0.53545   0.43582   0.00000  Uiso   1.00
loop_
_geom_bond_atom_site_label_1
_geom_bond_atom_site_label_2
_geom_bond_distance
_geom_bond_site_symmetry_2
_ccdc_geom_bond_type
H1     C22     1.019   .     S
H2     C23     1.019   .     S
H3     C24     1.019   .     S
H4     C19     1.019   .     S
H5     C20     1.019   .     S
H6     C21     1.019   .     S
H7     C31     1.025   .     S
H8     C32     1.025   .     S
H9     C33     1.025   .     S
H10    C34     1.025   .     S
H11    C35     1.025   .     S
H12    C36     1.025   .     S
C13    C19     1.412   .     S
C13    C28     1.423   .     S
C13    S37     1.750   .     S
C14    C29     1.423   .     S
C14    S38     1.750   .     S
C15    S39     1.750   .     S
C15    C30     1.423   .     S
C16    C25     1.423   .     S
C16    C22     1.412   .     S
C16    S40     1.750   .     S
C17    S41     1.750   .     S
C17    C26     1.423   .     S
C18    S42     1.750   .     S
C18    C27     1.423   .     S
C19    C25     1.414   .     S
C20    C26     1.414   .     S
C21    C27     1.414   .     S
C22    C28     1.414   .     S
C23    C29     1.414   .     S
C24    C30     1.414   .     S
C25    N67     1.368   .     S
C26    N69     1.368   .     S
C27    N71     1.368   .     S
C28    N73     1.368   .     S
C29    N75     1.368   .     S
C30    N77     1.368   .     S
C31    N67     1.364   .     S
C31    C80     1.428   .     S
C32    N69     1.364   .     S
C32    C82     1.428   .     S
C33    N71     1.364   .     S
C33    C84     1.428   .     S
C34    N73     1.364   .     S
C34    C86     1.428   .     S
C35    C88     1.428   .     S
C35    N75     1.364   .     S
C36    C90     1.428   .     S
C36    N77     1.364   .     S
S37    O46     1.688   .     S
S37    O52     1.587   .     S
S37    O58     1.590   .     S
S38    O47     1.688   .     S
S38    O53     1.587   .     S
S38    O59     1.590   .     S
S39    O48     1.688   .     S
S39    O54     1.587   .     S
S39    O60     1.590   .     S
S40    O43     1.688   .     S
S40    O49     1.587   .     S
S40    O55     1.590   .     S
S41    O50     1.587   .     S
S41    O44     1.688   .     S
S41    O56     1.590   .     S
S42    O45     1.688   .     S
S42    O51     1.587   .     S
S42    O57     1.590   .     S
O43    H61     0.987   .     S
O44    H62     0.987   .     S
O45    H63     0.987   .     S
O46    H64     0.987   .     S
O47    H65     0.987   .     S
O48    H66     0.987   .     S
N67    H68     0.983   .     S
N69    H70     0.983   .     S
N71    H72     0.983   .     S
N73    H74     0.983   .     S
N75    H76     0.983   .     S
N77    H78     0.983   .     S
C79    C82     1.421   .     S
C79    C80     1.420   .     S
C79    O91     1.252   .     S
C80    C83     1.421   .     S
C81    C84     1.421   .     S
C81    C82     1.420   .     S
C81    O92     1.252   .     S
C83    C84     1.420   .     S
C83    O93     1.252   .     S
C85    C86     1.420   .     S
C85    C88     1.421   .     S
C85    O94     1.252   .     S
C86    C89     1.421   .     S
C87    C90     1.421   .     S
C87    C88     1.420   .     S
C87    O95     1.252   .     S
C89    C90     1.420   .     S
C89    O96     1.252   .     S
