data_NUS-3
_audit_creation_date              2016-12-13
_audit_creation_method            'Materials Studio'
_symmetry_space_group_name_H-M    'P1'
_symmetry_Int_Tables_number       1
_symmetry_cell_setting            triclinic
loop_
_symmetry_equiv_pos_as_xyz
  x,y,z
_cell_length_a                    29.8530
_cell_length_b                    29.8530
_cell_length_c                    3.6000
_cell_angle_alpha                 90.0000
_cell_angle_beta                  90.0000
_cell_angle_gamma                 60.0000
loop_
_atom_site_label
_atom_site_type_symbol
_atom_site_fract_x
_atom_site_fract_y
_atom_site_fract_z
_atom_site_U_iso_or_equiv
_atom_site_adp_type
_atom_site_occupancy
H1     H     0.32412   0.66562   1.14341   0.00000  Uiso   1.00
H2     H     0.34656   0.57689   1.64134   0.00000  Uiso   1.00
H3     H     0.67588   0.33438   1.14341   0.00000  Uiso   1.00
H4     H     0.65344   0.42311   1.64134   0.00000  Uiso   1.00
H5     H     0.67588   0.33438   1.63436   0.00000  Uiso   1.00
H6     H     0.65344   0.42311   1.13644   0.00000  Uiso   1.00
H7     H     0.32412   0.66562   1.63436   0.00000  Uiso   1.00
H8     H     0.34656   0.57689   1.13644   0.00000  Uiso   1.00
H9     H     0.72182   0.34346   1.38889   0.00000  Uiso   1.00
H10    H     0.52416   0.41185   1.38889   0.00000  Uiso   1.00
H11    H     0.52767   0.60875   1.38889   0.00000  Uiso   1.00
H12    H     0.55299   0.66969   1.38889   0.00000  Uiso   1.00
C1     C     0.44884   0.53901   1.38889   0.00000  Uiso   1.00
C2     C     0.48843   0.54886   1.38889   0.00000  Uiso   1.00
C3     C     0.57789   0.53030   1.38889   0.00000  Uiso   1.00
C4     C     0.54002   0.51224   1.38889   0.00000  Uiso   1.00
C5     C     0.59153   0.63980   1.38889   0.00000  Uiso   1.00
C6     C     0.64650   0.40751   1.38889   0.00000  Uiso   1.00
O1     O     0.59731   0.41504   1.38889   0.00000  Uiso   1.00
C7     C     0.68253   0.35139   1.38889   0.00000  Uiso   1.00
N1     N     0.56451   0.58008   1.38889   0.00000  Uiso   1.00
N2     N     0.60182   0.59355   1.38889   0.00000  Uiso   1.00
O2     O     0.62219   0.50065   1.38889   0.00000  Uiso   1.00
H13    H     0.27818   0.65654   1.38889   0.00000  Uiso   1.00
H14    H     0.47584   0.58815   1.38889   0.00000  Uiso   1.00
H15    H     0.47233   0.39125   1.38889   0.00000  Uiso   1.00
H16    H     0.44701   0.33031   1.38889   0.00000  Uiso   1.00
C8     C     0.55117   0.46099   1.38889   0.00000  Uiso   1.00
C9     C     0.51157   0.45114   1.38889   0.00000  Uiso   1.00
C10    C     0.42211   0.46970   1.38889   0.00000  Uiso   1.00
C11    C     0.45998   0.48776   1.38889   0.00000  Uiso   1.00
C12    C     0.40847   0.36020   1.38889   0.00000  Uiso   1.00
C13    C     0.35350   0.59249   1.38889   0.00000  Uiso   1.00
O3     O     0.40270   0.58496   1.38889   0.00000  Uiso   1.00
C14    C     0.31747   0.64862   1.38889   0.00000  Uiso   1.00
N3     N     0.43549   0.41992   1.38889   0.00000  Uiso   1.00
N4     N     0.39818   0.40645   1.38889   0.00000  Uiso   1.00
O4     O     0.37781   0.49935   1.38889   0.00000  Uiso   1.00
H17    H     0.01026   0.32412   1.14341   0.00000  Uiso   1.00
H18    H     0.07655   0.34656   1.64134   0.00000  Uiso   1.00
H19    H     0.98974   0.67588   1.14341   0.00000  Uiso   1.00
H20    H     0.92345   0.65344   1.64134   0.00000  Uiso   1.00
H21    H     0.98974   0.67588   1.63436   0.00000  Uiso   1.00
H22    H     0.92345   0.65344   1.13644   0.00000  Uiso   1.00
H23    H     0.01026   0.32412   1.63436   0.00000  Uiso   1.00
H24    H     0.07655   0.34656   1.13644   0.00000  Uiso   1.00
H25    H     0.93472   0.72182   1.38889   0.00000  Uiso   1.00
H26    H     0.06399   0.52416   1.38889   0.00000  Uiso   1.00
H27    H     0.86358   0.52767   1.38889   0.00000  Uiso   1.00
H28    H     0.77733   0.55299   1.38889   0.00000  Uiso   1.00
C15    C     0.01215   0.44884   1.38889   0.00000  Uiso   1.00
C16    C     0.96271   0.48843   1.38889   0.00000  Uiso   1.00
C17    C     0.89181   0.57789   1.38889   0.00000  Uiso   1.00
C18    C     0.94774   0.54002   1.38889   0.00000  Uiso   1.00
C19    C     0.76867   0.59153   1.38889   0.00000  Uiso   1.00
C20    C     0.94599   0.64650   1.38889   0.00000  Uiso   1.00
O5     O     0.98766   0.59731   1.38889   0.00000  Uiso   1.00
C21    C     0.96609   0.68253   1.38889   0.00000  Uiso   1.00
N5     N     0.85541   0.56451   1.38889   0.00000  Uiso   1.00
N6     N     0.80463   0.60182   1.38889   0.00000  Uiso   1.00
O6     O     0.87716   0.62219   1.38889   0.00000  Uiso   1.00
H29    H     0.06528   0.27818   1.38889   0.00000  Uiso   1.00
H30    H     0.93601   0.47584   1.38889   0.00000  Uiso   1.00
H31    H     0.13642   0.47233   1.38889   0.00000  Uiso   1.00
H32    H     0.22267   0.44701   1.38889   0.00000  Uiso   1.00
C22    C     0.98785   0.55117   1.38889   0.00000  Uiso   1.00
C23    C     0.03729   0.51157   1.38889   0.00000  Uiso   1.00
C24    C     0.10819   0.42211   1.38889   0.00000  Uiso   1.00
C25    C     0.05226   0.45998   1.38889   0.00000  Uiso   1.00
C26    C     0.23133   0.40847   1.38889   0.00000  Uiso   1.00
C27    C     0.05401   0.35350   1.38889   0.00000  Uiso   1.00
O7     O     0.01235   0.40270   1.38889   0.00000  Uiso   1.00
C28    C     0.03391   0.31747   1.38889   0.00000  Uiso   1.00
N7     N     0.14459   0.43549   1.38889   0.00000  Uiso   1.00
N8     N     0.19537   0.39818   1.38889   0.00000  Uiso   1.00
O8     O     0.12284   0.37781   1.38889   0.00000  Uiso   1.00
H33    H     0.66562   0.01026   1.14341   0.00000  Uiso   1.00
H34    H     0.57689   0.07655   1.64134   0.00000  Uiso   1.00
H35    H     0.33438   0.98974   1.14341   0.00000  Uiso   1.00
H36    H     0.42311   0.92345   1.64134   0.00000  Uiso   1.00
H37    H     0.33438   0.98974   1.63436   0.00000  Uiso   1.00
H38    H     0.42311   0.92345   1.13644   0.00000  Uiso   1.00
H39    H     0.66562   0.01026   1.63436   0.00000  Uiso   1.00
H40    H     0.57689   0.07655   1.13644   0.00000  Uiso   1.00
H41    H     0.34346   0.93472   1.38889   0.00000  Uiso   1.00
H42    H     0.41185   0.06399   1.38889   0.00000  Uiso   1.00
H43    H     0.60875   0.86358   1.38889   0.00000  Uiso   1.00
H44    H     0.66969   0.77733   1.38889   0.00000  Uiso   1.00
C29    C     0.53901   0.01215   1.38889   0.00000  Uiso   1.00
C30    C     0.54886   0.96271   1.38889   0.00000  Uiso   1.00
C31    C     0.53030   0.89181   1.38889   0.00000  Uiso   1.00
C32    C     0.51224   0.94774   1.38889   0.00000  Uiso   1.00
C33    C     0.63980   0.76867   1.38889   0.00000  Uiso   1.00
C34    C     0.40751   0.94599   1.38889   0.00000  Uiso   1.00
O9     O     0.41504   0.98766   1.38889   0.00000  Uiso   1.00
C35    C     0.35139   0.96609   1.38889   0.00000  Uiso   1.00
N9     N     0.58008   0.85541   1.38889   0.00000  Uiso   1.00
N10    N     0.59355   0.80463   1.38889   0.00000  Uiso   1.00
O10    O     0.50065   0.87716   1.38889   0.00000  Uiso   1.00
H45    H     0.65654   0.06528   1.38889   0.00000  Uiso   1.00
H46    H     0.58815   0.93601   1.38889   0.00000  Uiso   1.00
H47    H     0.39125   0.13642   1.38889   0.00000  Uiso   1.00
H48    H     0.33031   0.22267   1.38889   0.00000  Uiso   1.00
C36    C     0.46099   0.98785   1.38889   0.00000  Uiso   1.00
C37    C     0.45114   0.03729   1.38889   0.00000  Uiso   1.00
C38    C     0.46970   0.10819   1.38889   0.00000  Uiso   1.00
C39    C     0.48776   0.05226   1.38889   0.00000  Uiso   1.00
C40    C     0.36020   0.23133   1.38889   0.00000  Uiso   1.00
C41    C     0.59249   0.05401   1.38889   0.00000  Uiso   1.00
O11    O     0.58496   0.01235   1.38889   0.00000  Uiso   1.00
C42    C     0.64862   0.03391   1.38889   0.00000  Uiso   1.00
N11    N     0.41992   0.14459   1.38889   0.00000  Uiso   1.00
N12    N     0.40645   0.19537   1.38889   0.00000  Uiso   1.00
O12    O     0.49935   0.12284   1.38889   0.00000  Uiso   1.00
C43    C     0.68205   0.61400   1.38889   0.00000  Uiso   1.00
C44    C     0.62850   0.65095   1.38889   0.00000  Uiso   1.00
O13    O     0.69556   0.57038   1.38889   0.00000  Uiso   1.00
C45    C     0.61400   0.70395   1.38889   0.00000  Uiso   1.00
C46    C     0.65095   0.72056   1.38889   0.00000  Uiso   1.00
O14    O     0.57038   0.73406   1.38889   0.00000  Uiso   1.00
C47    C     0.70395   0.68205   1.38889   0.00000  Uiso   1.00
C48    C     0.72056   0.62850   1.38889   0.00000  Uiso   1.00
O15    O     0.73406   0.69556   1.38889   0.00000  Uiso   1.00
C49    C     0.31795   0.38600   1.38889   0.00000  Uiso   1.00
C50    C     0.37150   0.34906   1.38889   0.00000  Uiso   1.00
O16    O     0.30444   0.42962   1.38889   0.00000  Uiso   1.00
C51    C     0.38600   0.29606   1.38889   0.00000  Uiso   1.00
C52    C     0.34906   0.27944   1.38889   0.00000  Uiso   1.00
O17    O     0.42962   0.26594   1.38889   0.00000  Uiso   1.00
C53    C     0.29606   0.31795   1.38889   0.00000  Uiso   1.00
C54    C     0.27944   0.37150   1.38889   0.00000  Uiso   1.00
O18    O     0.26594   0.30444   1.38889   0.00000  Uiso   1.00
loop_
_geom_bond_atom_site_label_1
_geom_bond_atom_site_label_2
_geom_bond_distance
_geom_bond_site_symmetry_2
_ccdc_geom_bond_type
H1     C14     1.086   .     S
H2     C13     1.087   .     S
H3     C7      1.086   .     S
H4     C6      1.087   .     S
H5     C7      1.086   .     S
H6     C6      1.087   .     S
H7     C14     1.086   .     S
H8     C13     1.087   .     S
H9     C7      1.074   .     S
H10    C9      1.037   .     S
H11    N1      1.000   .     S
H12    C5      1.046   .     S
C1     C11     1.394   .     S
C1     C2      1.353   .     S
C1     O3      1.375   .     S
C2     H14     1.037   .     S
C2     C4      1.373   .     S
C3     O2      1.167   .     S
C3     C4      1.476   .     S
C3     N1      1.332   .     S
C4     C8      1.394   .     S
C5     C44     1.302   .     S
C5     N2      1.256   .     S
C6     C7      1.470   .     S
C6     O1      1.370   .     S
O1     C8      1.375   .     S
N1     N2      1.360   .     S
H13    C14     1.074   .     S
H15    N3      1.000   .     S
H16    C12     1.046   .     S
C8     C9      1.353   .     S
C9     C11     1.373   .     S
C10    N3      1.332   .     S
C10    C11     1.476   .     S
C10    O4      1.167   .     S
C12    C50     1.302   .     S
C12    N4      1.256   .     S
C13    O3      1.370   .     S
C13    C14     1.470   .     S
N3     N4      1.360   .     S
H17    C28     1.086   .     S
H18    C27     1.087   .     S
H19    C21     1.086   .     S
H20    C20     1.087   .     S
H21    C21     1.086   .     S
H22    C20     1.087   .     S
H23    C28     1.086   .     S
H24    C27     1.087   .     S
H25    C21     1.074   .     S
H26    C23     1.037   .     S
H27    N5      1.000   .     S
H28    C19     1.046   .     S
C15    C25     1.394   .     S
C15    O7      1.375   .     S
C16    C18     1.373   .     S
C16    H30     1.037   .     S
C17    N5      1.332   .     S
C17    O6      1.167   .     S
C17    C18     1.476   .     S
C18    C22     1.394   .     S
C19    N6      1.256   .     S
C19    C48     1.302   .     S
C20    C21     1.470   .     S
C20    O5      1.370   .     S
O5     C22     1.375   .     S
N5     N6      1.360   .     S
H29    C28     1.074   .     S
H31    N7      1.000   .     S
H32    C26     1.046   .     S
C23    C25     1.373   .     S
C24    C25     1.476   .     S
C24    N7      1.332   .     S
C24    O8      1.167   .     S
C26    C54     1.302   .     S
C26    N8      1.256   .     S
C27    O7      1.370   .     S
C27    C28     1.470   .     S
N7     N8      1.360   .     S
H33    C42     1.086   .     S
H34    C41     1.087   .     S
H35    C35     1.086   .     S
H36    C34     1.087   .     S
H37    C35     1.086   .     S
H38    C34     1.087   .     S
H39    C42     1.086   .     S
H40    C41     1.087   .     S
H41    C35     1.074   .     S
H42    C37     1.037   .     S
H43    N9      1.000   .     S
H44    C33     1.046   .     S
C29    O11     1.375   .     S
C29    C39     1.394   .     S
C30    H46     1.037   .     S
C30    C32     1.373   .     S
C31    C32     1.476   .     S
C31    N9      1.332   .     S
C31    O10     1.167   .     S
C32    C36     1.394   .     S
C33    N10     1.256   .     S
C33    C46     1.302   .     S
C34    C35     1.470   .     S
C34    O9      1.370   .     S
O9     C36     1.375   .     S
N9     N10     1.360   .     S
H45    C42     1.074   .     S
H47    N11     1.000   .     S
H48    C40     1.046   .     S
C37    C39     1.373   .     S
C38    O12     1.167   .     S
C38    N11     1.332   .     S
C38    C39     1.476   .     S
C40    C52     1.302   .     S
C40    N12     1.256   .     S
C41    O11     1.370   .     S
C41    C42     1.470   .     S
N11    N12     1.360   .     S
C43    O13     1.155   .     S
C43    C44     1.417   .     S
C43    C48     1.416   .     S
C44    C45     1.416   .     S
C45    O14     1.155   .     S
C45    C46     1.417   .     S
C46    C47     1.416   .     S
C47    C48     1.417   .     S
C47    O15     1.155   .     S
C49    C54     1.416   .     S
C49    C50     1.417   .     S
C49    O16     1.155   .     S
C50    C51     1.416   .     S
C51    C52     1.417   .     S
C51    O17     1.155   .     S
C52    C53     1.416   .     S
C53    O18     1.155   .     S
C53    C54     1.417   .     S
