data_NUS-2
_audit_creation_date              2016-12-13
_audit_creation_method            'Materials Studio'
_symmetry_space_group_name_H-M    'P1'
_symmetry_Int_Tables_number       1
_symmetry_cell_setting            triclinic
loop_
_symmetry_equiv_pos_as_xyz
  x,y,z
_cell_length_a                    15.4975
_cell_length_b                    15.4975
_cell_length_c                    3.6000
_cell_angle_alpha                 90.0000
_cell_angle_beta                  90.0000
_cell_angle_gamma                 120.0000
loop_
_atom_site_label
_atom_site_type_symbol
_atom_site_fract_x
_atom_site_fract_y
_atom_site_fract_z
_atom_site_U_iso_or_equiv
_atom_site_adp_type
_atom_site_occupancy
N1     N     0.04534   0.53979   0.50000   0.00000  Uiso   1.00
N2     N     0.46021   0.50555   0.50000   0.00000  Uiso   1.00
N3     N     0.49445   0.95466   0.50000   0.00000  Uiso   1.00
N4     N     0.95466   0.46021   0.50000   0.00000  Uiso   1.00
N5     N     0.53979   0.49445   0.50000   0.00000  Uiso   1.00
N6     N     0.50555   0.04534   0.50000   0.00000  Uiso   1.00
C7     C     0.13229   0.53781   0.50000   0.00000  Uiso   1.00
C8     C     0.46219   0.59448   0.50000   0.00000  Uiso   1.00
C9     C     0.40552   0.86771   0.50000   0.00000  Uiso   1.00
C10    C     0.86771   0.46219   0.50000   0.00000  Uiso   1.00
C11    C     0.53781   0.40552   0.50000   0.00000  Uiso   1.00
C12    C     0.59448   0.13229   0.50000   0.00000  Uiso   1.00
H13    H     0.13064   0.46344   0.50000   0.00000  Uiso   1.00
H14    H     0.53656   0.66720   0.50000   0.00000  Uiso   1.00
H15    H     0.33280   0.86936   0.50000   0.00000  Uiso   1.00
H16    H     0.86936   0.53656   0.50000   0.00000  Uiso   1.00
H17    H     0.46344   0.33280   0.50000   0.00000  Uiso   1.00
H18    H     0.66720   0.13064   0.50000   0.00000  Uiso   1.00
H19    H     0.04695   0.61220   0.50000   0.00000  Uiso   1.00
H20    H     0.38780   0.43474   0.50000   0.00000  Uiso   1.00
H21    H     0.56526   0.95305   0.50000   0.00000  Uiso   1.00
H22    H     0.95305   0.38780   0.50000   0.00000  Uiso   1.00
H23    H     0.61220   0.56526   0.50000   0.00000  Uiso   1.00
H24    H     0.43474   0.04695   0.50000   0.00000  Uiso   1.00
C25    C     0.29942   0.56427   0.50000   0.00000  Uiso   1.00
C26    C     0.22852   0.59661   0.50000   0.00000  Uiso   1.00
C27    C     0.43573   0.73515   0.50000   0.00000  Uiso   1.00
C28    C     0.40339   0.63191   0.50000   0.00000  Uiso   1.00
C29    C     0.26485   0.70058   0.50000   0.00000  Uiso   1.00
C30    C     0.36809   0.77148   0.50000   0.00000  Uiso   1.00
C31    C     0.70058   0.43573   0.50000   0.00000  Uiso   1.00
C32    C     0.77148   0.40339   0.50000   0.00000  Uiso   1.00
C33    C     0.56427   0.26485   0.50000   0.00000  Uiso   1.00
C34    C     0.59661   0.36809   0.50000   0.00000  Uiso   1.00
C35    C     0.73515   0.29942   0.50000   0.00000  Uiso   1.00
C36    C     0.63191   0.22852   0.50000   0.00000  Uiso   1.00
O37    O     0.27302   0.48015   0.50000   0.00000  Uiso   1.00
O38    O     0.51985   0.79287   0.50000   0.00000  Uiso   1.00
O39    O     0.20713   0.72698   0.50000   0.00000  Uiso   1.00
O40    O     0.72698   0.51985   0.50000   0.00000  Uiso   1.00
O41    O     0.48015   0.20713   0.50000   0.00000  Uiso   1.00
O42    O     0.79287   0.27302   0.50000   0.00000  Uiso   1.00
loop_
_geom_bond_atom_site_label_1
_geom_bond_atom_site_label_2
_geom_bond_distance
_geom_bond_site_symmetry_2
_ccdc_geom_bond_type
N1     C7      1.363   .     S
N1     H19     1.110   .     S
N2     H20     1.110   .     S
N2     N5      1.328   .     S
N2     C8      1.363   .     S
N3     H21     1.110   .     S
N3     C9      1.363   .     S
N4     C10     1.363   .     S
N4     H22     1.110   .     S
N5     C11     1.363   .     S
N5     H23     1.110   .     S
N6     H24     1.110   .     S
N6     C12     1.363   .     S
C7     C26     1.302   .     S
C7     H13     1.140   .     S
C8     C28     1.302   .     S
C8     H14     1.140   .     S
C9     H15     1.140   .     S
C9     C30     1.302   .     S
C10    C32     1.302   .     S
C10    H16     1.140   .     S
C11    H17     1.140   .     S
C11    C34     1.302   .     S
C12    C36     1.302   .     S
C12    H18     1.140   .     S
C25    C28     1.416   .     S
C25    C26     1.417   .     S
C25    O37     1.155   .     S
C26    C29     1.416   .     S
C27    C30     1.416   .     S
C27    O38     1.155   .     S
C27    C28     1.417   .     S
C29    C30     1.417   .     S
C29    O39     1.155   .     S
C31    C32     1.417   .     S
C31    O40     1.155   .     S
C31    C34     1.416   .     S
C32    C35     1.416   .     S
C33    C34     1.417   .     S
C33    O41     1.155   .     S
C33    C36     1.416   .     S
C35    O42     1.155   .     S
C35    C36     1.417   .     S
