data_NUS-14
_audit_creation_date              2016-12-13
_audit_creation_method            'Materials Studio'
_symmetry_space_group_name_H-M    'P1'
_symmetry_Int_Tables_number       1
_symmetry_cell_setting            triclinic
loop_
_symmetry_equiv_pos_as_xyz
  x,y,z
_cell_length_a                    47.8845
_cell_length_b                    47.8845
_cell_length_c                    3.5362
_cell_angle_alpha                 90.0000
_cell_angle_beta                  90.0000
_cell_angle_gamma                 120.0000
loop_
_atom_site_label
_atom_site_type_symbol
_atom_site_fract_x
_atom_site_fract_y
_atom_site_fract_z
_atom_site_U_iso_or_equiv
_atom_site_adp_type
_atom_site_occupancy
N1     N     0.14334   0.58135   0.50000   0.00000  Uiso   1.00
N2     N     0.41866   0.56199   0.50000   0.00000  Uiso   1.00
N3     N     0.43801   0.85667   0.50000   0.00000  Uiso   1.00
N4     N     0.85667   0.41866   0.50000   0.00000  Uiso   1.00
N5     N     0.58135   0.43801   0.50000   0.00000  Uiso   1.00
N6     N     0.56199   0.14334   0.50000   0.00000  Uiso   1.00
N7     N     0.00953   0.51554   0.50000   0.00000  Uiso   1.00
N8     N     0.48446   0.49399   0.50000   0.00000  Uiso   1.00
N9     N     0.50601   0.99047   0.50000   0.00000  Uiso   1.00
N10    N     0.99047   0.48446   0.50000   0.00000  Uiso   1.00
N11    N     0.51554   0.50601   0.50000   0.00000  Uiso   1.00
N12    N     0.49399   0.00953   0.50000   0.00000  Uiso   1.00
C13    C     0.16621   0.61295   0.50000   0.00000  Uiso   1.00
C14    C     0.11074   0.56662   0.50000   0.00000  Uiso   1.00
C15    C     0.09276   0.58273   0.50000   0.00000  Uiso   1.00
C16    C     0.05878   0.56507   0.50000   0.00000  Uiso   1.00
C17    C     0.04210   0.53111   0.50000   0.00000  Uiso   1.00
C18    C     0.06003   0.51501   0.50000   0.00000  Uiso   1.00
C19    C     0.09400   0.53264   0.50000   0.00000  Uiso   1.00
C20    C     0.38705   0.55326   0.50000   0.00000  Uiso   1.00
C21    C     0.43338   0.54412   0.50000   0.00000  Uiso   1.00
C22    C     0.41728   0.51003   0.50000   0.00000  Uiso   1.00
C23    C     0.43493   0.49370   0.50000   0.00000  Uiso   1.00
C24    C     0.46889   0.51099   0.50000   0.00000  Uiso   1.00
C25    C     0.48500   0.54502   0.50000   0.00000  Uiso   1.00
C26    C     0.46736   0.56136   0.50000   0.00000  Uiso   1.00
C27    C     0.44674   0.83379   0.50000   0.00000  Uiso   1.00
C28    C     0.45588   0.88926   0.50000   0.00000  Uiso   1.00
C29    C     0.48997   0.90724   0.50000   0.00000  Uiso   1.00
C30    C     0.50630   0.94122   0.50000   0.00000  Uiso   1.00
C31    C     0.48901   0.95790   0.50000   0.00000  Uiso   1.00
C32    C     0.45498   0.93997   0.50000   0.00000  Uiso   1.00
C33    C     0.43864   0.90600   0.50000   0.00000  Uiso   1.00
C34    C     0.83379   0.38705   0.50000   0.00000  Uiso   1.00
C35    C     0.88926   0.43338   0.50000   0.00000  Uiso   1.00
C36    C     0.90724   0.41728   0.50000   0.00000  Uiso   1.00
C37    C     0.94122   0.43493   0.50000   0.00000  Uiso   1.00
C38    C     0.95790   0.46889   0.50000   0.00000  Uiso   1.00
C39    C     0.93997   0.48500   0.50000   0.00000  Uiso   1.00
C40    C     0.90600   0.46736   0.50000   0.00000  Uiso   1.00
C41    C     0.61295   0.44674   0.50000   0.00000  Uiso   1.00
C42    C     0.56662   0.45588   0.50000   0.00000  Uiso   1.00
C43    C     0.58273   0.48997   0.50000   0.00000  Uiso   1.00
C44    C     0.56507   0.50630   0.50000   0.00000  Uiso   1.00
C45    C     0.53111   0.48901   0.50000   0.00000  Uiso   1.00
C46    C     0.51501   0.45498   0.50000   0.00000  Uiso   1.00
C47    C     0.53264   0.43864   0.50000   0.00000  Uiso   1.00
C48    C     0.55326   0.16621   0.50000   0.00000  Uiso   1.00
C49    C     0.54412   0.11074   0.50000   0.00000  Uiso   1.00
C50    C     0.51003   0.09276   0.50000   0.00000  Uiso   1.00
C51    C     0.49370   0.05878   0.50000   0.00000  Uiso   1.00
C52    C     0.51099   0.04210   0.50000   0.00000  Uiso   1.00
C53    C     0.54502   0.06003   0.50000   0.00000  Uiso   1.00
C54    C     0.56136   0.09400   0.50000   0.00000  Uiso   1.00
H55    H     0.15936   0.63003   0.50000   0.00000  Uiso   1.00
H56    H     0.10408   0.60728   0.50000   0.00000  Uiso   1.00
H57    H     0.10662   0.52059   0.50000   0.00000  Uiso   1.00
H58    H     0.04610   0.57705   0.50000   0.00000  Uiso   1.00
H59    H     0.04827   0.49038   0.50000   0.00000  Uiso   1.00
H60    H     0.36997   0.52934   0.50000   0.00000  Uiso   1.00
H61    H     0.39272   0.49680   0.50000   0.00000  Uiso   1.00
H62    H     0.47941   0.58602   0.50000   0.00000  Uiso   1.00
H63    H     0.42295   0.46905   0.50000   0.00000  Uiso   1.00
H64    H     0.50962   0.55789   0.50000   0.00000  Uiso   1.00
H65    H     0.47067   0.84064   0.50000   0.00000  Uiso   1.00
H66    H     0.50320   0.89592   0.50000   0.00000  Uiso   1.00
H67    H     0.41398   0.89338   0.50000   0.00000  Uiso   1.00
H68    H     0.53095   0.95390   0.50000   0.00000  Uiso   1.00
H69    H     0.44211   0.95173   0.50000   0.00000  Uiso   1.00
H70    H     0.84064   0.36997   0.50000   0.00000  Uiso   1.00
H71    H     0.89592   0.39272   0.50000   0.00000  Uiso   1.00
H72    H     0.89338   0.47941   0.50000   0.00000  Uiso   1.00
H73    H     0.95390   0.42295   0.50000   0.00000  Uiso   1.00
H74    H     0.95173   0.50962   0.50000   0.00000  Uiso   1.00
H75    H     0.63003   0.47067   0.50000   0.00000  Uiso   1.00
H76    H     0.60728   0.50320   0.50000   0.00000  Uiso   1.00
H77    H     0.52059   0.41398   0.50000   0.00000  Uiso   1.00
H78    H     0.57705   0.53095   0.50000   0.00000  Uiso   1.00
H79    H     0.49038   0.44211   0.50000   0.00000  Uiso   1.00
H80    H     0.52934   0.15936   0.50000   0.00000  Uiso   1.00
H81    H     0.49680   0.10408   0.50000   0.00000  Uiso   1.00
H82    H     0.58602   0.10662   0.50000   0.00000  Uiso   1.00
H83    H     0.46905   0.04610   0.50000   0.00000  Uiso   1.00
H84    H     0.55789   0.04827   0.50000   0.00000  Uiso   1.00
C85    C     0.35534   0.69917   0.50000   0.00000  Uiso   1.00
C86    C     0.30083   0.65618   0.50000   0.00000  Uiso   1.00
C87    C     0.34382   0.64466   0.50000   0.00000  Uiso   1.00
C88    C     0.64466   0.30083   0.50000   0.00000  Uiso   1.00
C89    C     0.69917   0.34382   0.50000   0.00000  Uiso   1.00
C90    C     0.65618   0.35534   0.50000   0.00000  Uiso   1.00
N91    N     0.36487   0.67685   0.50000   0.00000  Uiso   1.00
N92    N     0.32315   0.68803   0.50000   0.00000  Uiso   1.00
N93    N     0.31197   0.63513   0.50000   0.00000  Uiso   1.00
N94    N     0.63513   0.32315   0.50000   0.00000  Uiso   1.00
N95    N     0.67685   0.31197   0.50000   0.00000  Uiso   1.00
N96    N     0.68803   0.36487   0.50000   0.00000  Uiso   1.00
C97    C     0.37796   0.73265   0.50000   0.00000  Uiso   1.00
C98    C     0.26735   0.64531   0.50000   0.00000  Uiso   1.00
C99    C     0.35469   0.62204   0.50000   0.00000  Uiso   1.00
C100   C     0.24415   0.61197   0.50000   0.00000  Uiso   1.00
C101   C     0.38803   0.63218   0.50000   0.00000  Uiso   1.00
C102   C     0.36782   0.75585   0.50000   0.00000  Uiso   1.00
C103   C     0.21088   0.60112   0.50000   0.00000  Uiso   1.00
C104   C     0.39888   0.60976   0.50000   0.00000  Uiso   1.00
C105   C     0.39024   0.78912   0.50000   0.00000  Uiso   1.00
C106   C     0.19941   0.62320   0.50000   0.00000  Uiso   1.00
C107   C     0.37680   0.57621   0.50000   0.00000  Uiso   1.00
C108   C     0.42379   0.80059   0.50000   0.00000  Uiso   1.00
C109   C     0.22242   0.65649   0.50000   0.00000  Uiso   1.00
C110   C     0.34351   0.56593   0.50000   0.00000  Uiso   1.00
C111   C     0.43407   0.77758   0.50000   0.00000  Uiso   1.00
C112   C     0.25567   0.66729   0.50000   0.00000  Uiso   1.00
C113   C     0.33271   0.58838   0.50000   0.00000  Uiso   1.00
C114   C     0.41162   0.74433   0.50000   0.00000  Uiso   1.00
C115   C     0.62204   0.26735   0.50000   0.00000  Uiso   1.00
C116   C     0.73265   0.35469   0.50000   0.00000  Uiso   1.00
C117   C     0.64531   0.37796   0.50000   0.00000  Uiso   1.00
C118   C     0.75585   0.38803   0.50000   0.00000  Uiso   1.00
C119   C     0.61197   0.36782   0.50000   0.00000  Uiso   1.00
C120   C     0.63218   0.24415   0.50000   0.00000  Uiso   1.00
C121   C     0.78912   0.39888   0.50000   0.00000  Uiso   1.00
C122   C     0.60112   0.39024   0.50000   0.00000  Uiso   1.00
C123   C     0.60976   0.21088   0.50000   0.00000  Uiso   1.00
C124   C     0.80059   0.37680   0.50000   0.00000  Uiso   1.00
C125   C     0.62320   0.42379   0.50000   0.00000  Uiso   1.00
C126   C     0.57621   0.19941   0.50000   0.00000  Uiso   1.00
C127   C     0.77758   0.34351   0.50000   0.00000  Uiso   1.00
C128   C     0.65649   0.43407   0.50000   0.00000  Uiso   1.00
C129   C     0.56593   0.22242   0.50000   0.00000  Uiso   1.00
C130   C     0.74433   0.33271   0.50000   0.00000  Uiso   1.00
C131   C     0.66729   0.41162   0.50000   0.00000  Uiso   1.00
C132   C     0.58838   0.25567   0.50000   0.00000  Uiso   1.00
H133   H     0.25129   0.59509   0.50000   0.00000  Uiso   1.00
H134   H     0.40492   0.65620   0.50000   0.00000  Uiso   1.00
H135   H     0.34380   0.74871   0.50000   0.00000  Uiso   1.00
H136   H     0.19502   0.57683   0.50000   0.00000  Uiso   1.00
H137   H     0.42317   0.61819   0.50000   0.00000  Uiso   1.00
H138   H     0.38181   0.80498   0.50000   0.00000  Uiso   1.00
H139   H     0.21519   0.67332   0.50000   0.00000  Uiso   1.00
H140   H     0.32668   0.54188   0.50000   0.00000  Uiso   1.00
H141   H     0.45812   0.78481   0.50000   0.00000  Uiso   1.00
H142   H     0.27136   0.69163   0.50000   0.00000  Uiso   1.00
H143   H     0.30837   0.57974   0.50000   0.00000  Uiso   1.00
H144   H     0.42026   0.72864   0.50000   0.00000  Uiso   1.00
H145   H     0.74871   0.40492   0.50000   0.00000  Uiso   1.00
H146   H     0.59509   0.34380   0.50000   0.00000  Uiso   1.00
H147   H     0.65620   0.25129   0.50000   0.00000  Uiso   1.00
H148   H     0.80498   0.42317   0.50000   0.00000  Uiso   1.00
H149   H     0.57683   0.38181   0.50000   0.00000  Uiso   1.00
H150   H     0.61819   0.19502   0.50000   0.00000  Uiso   1.00
H151   H     0.78481   0.32668   0.50000   0.00000  Uiso   1.00
H152   H     0.67332   0.45812   0.50000   0.00000  Uiso   1.00
H153   H     0.54188   0.21519   0.50000   0.00000  Uiso   1.00
H154   H     0.72864   0.30837   0.50000   0.00000  Uiso   1.00
H155   H     0.69163   0.42026   0.50000   0.00000  Uiso   1.00
H156   H     0.57974   0.27136   0.50000   0.00000  Uiso   1.00
loop_
_geom_bond_atom_site_label_1
_geom_bond_atom_site_label_2
_geom_bond_distance
_geom_bond_site_symmetry_2
_ccdc_geom_bond_type
N1     C14     1.354   .     S
N1     C13     1.354   .     S
N2     C20     1.354   .     S
N2     C21     1.354   .     S
N3     C28     1.354   .     S
N3     C27     1.354   .     S
N4     C34     1.354   .     S
N4     C35     1.354   .     S
N5     C42     1.354   .     S
N5     C41     1.354   .     S
N6     C48     1.354   .     S
N6     C49     1.354   .     S
N7     C17     1.351   .     S
N8     C24     1.351   .     S
N8     N11     1.300   .     S
N9     C31     1.351   .     S
N10    C38     1.351   .     S
N11    C45     1.351   .     S
N12    C52     1.351   .     S
C13    C106    1.410   .     S
C13    H55     1.022   .     S
C14    C15     1.414   .     S
C14    C19     1.409   .     S
C15    C16     1.410   .     S
C15    H56     1.019   .     S
C16    H58     1.023   .     S
C16    C17     1.409   .     S
C17    C18     1.412   .     S
C18    C19     1.409   .     S
C18    H59     1.021   .     S
C19    H57     1.023   .     S
C20    H60     1.022   .     S
C20    C107    1.410   .     S
C21    C26     1.409   .     S
C21    C22     1.414   .     S
C22    H61     1.019   .     S
C22    C23     1.410   .     S
C23    C24     1.409   .     S
C23    H63     1.023   .     S
C24    C25     1.412   .     S
C25    C26     1.409   .     S
C25    H64     1.021   .     S
C26    H62     1.023   .     S
C27    H65     1.022   .     S
C27    C108    1.410   .     S
C28    C29     1.414   .     S
C28    C33     1.409   .     S
C29    C30     1.410   .     S
C29    H66     1.019   .     S
C30    C31     1.409   .     S
C30    H68     1.023   .     S
C31    C32     1.412   .     S
C32    H69     1.021   .     S
C32    C33     1.409   .     S
C33    H67     1.023   .     S
C34    H70     1.022   .     S
C34    C124    1.410   .     S
C35    C40     1.409   .     S
C35    C36     1.414   .     S
C36    H71     1.019   .     S
C36    C37     1.409   .     S
C37    C38     1.409   .     S
C37    H73     1.023   .     S
C38    C39     1.412   .     S
C39    H74     1.021   .     S
C39    C40     1.409   .     S
C40    H72     1.023   .     S
C41    H75     1.022   .     S
C41    C125    1.410   .     S
C42    C47     1.409   .     S
C42    C43     1.414   .     S
C43    H76     1.019   .     S
C43    C44     1.410   .     S
C44    C45     1.409   .     S
C44    H78     1.023   .     S
C45    C46     1.412   .     S
C46    H79     1.021   .     S
C46    C47     1.409   .     S
C47    H77     1.023   .     S
C48    H80     1.022   .     S
C48    C126    1.410   .     S
C49    C54     1.409   .     S
C49    C50     1.414   .     S
C50    H81     1.019   .     S
C50    C51     1.410   .     S
C51    H83     1.023   .     S
C51    C52     1.409   .     S
C52    C53     1.412   .     S
C53    H84     1.021   .     S
C53    C54     1.409   .     S
C54    H82     1.023   .     S
C85    N92     1.356   .     S
C85    C97     1.417   .     S
C85    N91     1.356   .     S
C86    C98     1.417   .     S
C86    N92     1.356   .     S
C86    N93     1.356   .     S
C87    N91     1.356   .     S
C87    N93     1.356   .     S
C87    C99     1.417   .     S
C88    N94     1.356   .     S
C88    N95     1.356   .     S
C88    C115    1.417   .     S
C89    N96     1.356   .     S
C89    C116    1.417   .     S
C89    N95     1.356   .     S
C90    C117    1.417   .     S
C90    N96     1.356   .     S
C90    N94     1.356   .     S
C97    C102    1.418   .     S
C97    C114    1.418   .     S
C98    C112    1.418   .     S
C98    C100    1.418   .     S
C99    C101    1.418   .     S
C99    C113    1.418   .     S
C100   C103    1.407   .     S
C100   H133    1.023   .     S
C101   C104    1.407   .     S
C101   H134    1.023   .     S
C102   H135    1.023   .     S
C102   C105    1.407   .     S
C103   C106    1.414   .     S
C103   H136    1.023   .     S
C104   H137    1.023   .     S
C104   C107    1.414   .     S
C105   H138    1.023   .     S
C105   C108    1.414   .     S
C106   C109    1.414   .     S
C107   C110    1.414   .     S
C108   C111    1.414   .     S
C109   C112    1.407   .     S
C109   H139    1.024   .     S
C110   C113    1.407   .     S
C110   H140    1.024   .     S
C111   H141    1.024   .     S
C111   C114    1.407   .     S
C112   H142    1.023   .     S
C113   H143    1.023   .     S
C114   H144    1.023   .     S
C115   C120    1.418   .     S
C115   C132    1.418   .     S
C116   C118    1.418   .     S
C116   C130    1.418   .     S
C117   C119    1.418   .     S
C117   C131    1.418   .     S
C118   C121    1.407   .     S
C118   H145    1.023   .     S
C119   H146    1.023   .     S
C119   C122    1.407   .     S
C120   H147    1.023   .     S
C120   C123    1.407   .     S
C121   H148    1.023   .     S
C121   C124    1.414   .     S
C122   C125    1.414   .     S
C122   H149    1.023   .     S
C123   C126    1.414   .     S
C123   H150    1.023   .     S
C124   C127    1.414   .     S
C125   C128    1.414   .     S
C126   C129    1.414   .     S
C127   H151    1.024   .     S
C127   C130    1.407   .     S
C128   H152    1.024   .     S
C128   C131    1.407   .     S
C129   C132    1.407   .     S
C129   H153    1.024   .     S
C130   H154    1.023   .     S
C131   H155    1.023   .     S
C132   H156    1.023   .     S
