data_NUS-9
_audit_creation_date              2016-12-13
_audit_creation_method            'Materials Studio'
_symmetry_space_group_name_H-M    'P1'
_symmetry_Int_Tables_number       1
_symmetry_cell_setting            triclinic
loop_
_symmetry_equiv_pos_as_xyz
  x,y,z
_cell_length_a                    22.8959
_cell_length_b                    22.8959
_cell_length_c                    5.3800
_cell_angle_alpha                 90.0000
_cell_angle_beta                  90.0000
_cell_angle_gamma                 120.0000
loop_
_atom_site_label
_atom_site_type_symbol
_atom_site_fract_x
_atom_site_fract_y
_atom_site_fract_z
_atom_site_U_iso_or_equiv
_atom_site_adp_type
_atom_site_occupancy
H1     H     0.37273   0.44754   0.38896   0.00000  Uiso   1.00
H2     H     0.55246   0.92519   0.38896   0.00000  Uiso   1.00
H3     H     0.07481   0.62727   0.38897   0.00000  Uiso   1.00
H4     H     0.62727   0.55246   0.38895   0.00000  Uiso   1.00
H5     H     0.44754   0.07481   0.38897   0.00000  Uiso   1.00
H6     H     0.92519   0.37273   0.38897   0.00000  Uiso   1.00
H7     H     0.66428   0.48479   0.44489   0.00000  Uiso   1.00
H8     H     0.51521   0.17950   0.44489   0.00000  Uiso   1.00
H9     H     0.82050   0.33572   0.44490   0.00000  Uiso   1.00
H10    H     0.33572   0.51521   0.44489   0.00000  Uiso   1.00
H11    H     0.48479   0.82050   0.44489   0.00000  Uiso   1.00
H12    H     0.17950   0.66428   0.44490   0.00000  Uiso   1.00
C13    C     0.54099   0.57071   0.38212   0.00000  Uiso   1.00
C14    C     0.42929   0.97029   0.38213   0.00000  Uiso   1.00
C15    C     0.02971   0.45901   0.38214   0.00000  Uiso   1.00
C16    C     0.45901   0.42929   0.38212   0.00000  Uiso   1.00
C17    C     0.57071   0.02971   0.38213   0.00000  Uiso   1.00
C18    C     0.97029   0.54099   0.38214   0.00000  Uiso   1.00
C19    C     0.57008   0.52897   0.38713   0.00000  Uiso   1.00
C20    C     0.47103   0.04111   0.38714   0.00000  Uiso   1.00
C21    C     0.95889   0.42992   0.38715   0.00000  Uiso   1.00
C22    C     0.42992   0.47103   0.38713   0.00000  Uiso   1.00
C23    C     0.52897   0.95889   0.38714   0.00000  Uiso   1.00
C24    C     0.04111   0.57008   0.38715   0.00000  Uiso   1.00
C25    C     0.53026   0.45782   0.39002   0.00000  Uiso   1.00
C26    C     0.54218   0.07244   0.39003   0.00000  Uiso   1.00
C27    C     0.92756   0.46974   0.39003   0.00000  Uiso   1.00
C28    C     0.46974   0.54218   0.39002   0.00000  Uiso   1.00
C29    C     0.45782   0.92756   0.39003   0.00000  Uiso   1.00
C30    C     0.07244   0.53026   0.39004   0.00000  Uiso   1.00
C31    C     0.62197   0.43026   0.42478   0.00000  Uiso   1.00
C32    C     0.56974   0.19171   0.42478   0.00000  Uiso   1.00
C33    C     0.80829   0.37803   0.42479   0.00000  Uiso   1.00
C34    C     0.37803   0.56974   0.42478   0.00000  Uiso   1.00
C35    C     0.43026   0.80829   0.42478   0.00000  Uiso   1.00
C36    C     0.19171   0.62197   0.42479   0.00000  Uiso   1.00
S37    S     0.59509   0.65797   0.36332   0.00000  Uiso   1.00
S38    S     0.34203   0.93713   0.36334   0.00000  Uiso   1.00
S39    S     0.06287   0.40491   0.36334   0.00000  Uiso   1.00
O40    O     0.56411   0.69307   0.16603   0.00000  Uiso   1.00
O41    O     0.30693   0.87105   0.16605   0.00000  Uiso   1.00
O42    O     0.12895   0.43589   0.16605   0.00000  Uiso   1.00
O43    O     0.66670   0.67605   0.25559   0.00000  Uiso   1.00
O44    O     0.32395   0.99066   0.25561   0.00000  Uiso   1.00
O45    O     0.00934   0.33330   0.25561   0.00000  Uiso   1.00
O46    O     0.60429   0.69167   0.62938   0.00000  Uiso   1.00
O47    O     0.30833   0.91262   0.62940   0.00000  Uiso   1.00
O48    O     0.08739   0.39571   0.62941   0.00000  Uiso   1.00
H49    H     0.56514   0.73711   0.25672   0.00000  Uiso   1.00
H50    H     0.25407   0.85760   0.12664   0.00000  Uiso   1.00
H51    H     0.17348   0.47868   0.25547   0.00000  Uiso   1.00
H52    H     0.42533   0.37217   0.37167   0.00000  Uiso   1.00
H53    H     0.62783   0.05316   0.37168   0.00000  Uiso   1.00
H54    H     0.94684   0.57467   0.37169   0.00000  Uiso   1.00
N55    N     0.55693   0.41606   0.39700   0.00000  Uiso   1.00
H56    H     0.52343   0.36072   0.37824   0.00000  Uiso   1.00
N57    N     0.58394   0.14087   0.39701   0.00000  Uiso   1.00
H58    H     0.63928   0.16271   0.37825   0.00000  Uiso   1.00
N59    N     0.85913   0.44307   0.39702   0.00000  Uiso   1.00
H60    H     0.83729   0.47657   0.37826   0.00000  Uiso   1.00
N61    N     0.44307   0.58394   0.39700   0.00000  Uiso   1.00
H62    H     0.47657   0.63928   0.37824   0.00000  Uiso   1.00
N63    N     0.41606   0.85913   0.39701   0.00000  Uiso   1.00
H64    H     0.36072   0.83729   0.37825   0.00000  Uiso   1.00
N65    N     0.14087   0.55693   0.39702   0.00000  Uiso   1.00
H66    H     0.16271   0.52343   0.37826   0.00000  Uiso   1.00
C67    C     0.59757   0.31049   0.43467   0.00000  Uiso   1.00
C68    C     0.64300   0.38114   0.43135   0.00000  Uiso   1.00
C69    C     0.68952   0.28708   0.43468   0.00000  Uiso   1.00
C70    C     0.61886   0.26186   0.43135   0.00000  Uiso   1.00
C71    C     0.71292   0.40243   0.43468   0.00000  Uiso   1.00
C72    C     0.73814   0.35700   0.43136   0.00000  Uiso   1.00
C73    C     0.40243   0.68952   0.43467   0.00000  Uiso   1.00
C74    C     0.35700   0.61886   0.43135   0.00000  Uiso   1.00
C75    C     0.31049   0.71292   0.43468   0.00000  Uiso   1.00
C76    C     0.38114   0.73814   0.43135   0.00000  Uiso   1.00
C77    C     0.28708   0.59757   0.43468   0.00000  Uiso   1.00
C78    C     0.26186   0.64300   0.43136   0.00000  Uiso   1.00
O79    O     0.53552   0.28927   0.44400   0.00000  Uiso   1.00
O80    O     0.71073   0.24625   0.44401   0.00000  Uiso   1.00
O81    O     0.75375   0.46448   0.44401   0.00000  Uiso   1.00
O82    O     0.46448   0.71073   0.44400   0.00000  Uiso   1.00
O83    O     0.28927   0.75375   0.44401   0.00000  Uiso   1.00
O84    O     0.24625   0.53552   0.44401   0.00000  Uiso   1.00
loop_
_geom_bond_atom_site_label_1
_geom_bond_atom_site_label_2
_geom_bond_distance
_geom_bond_site_symmetry_2
_ccdc_geom_bond_type
H1     C22     1.140   .     S
H2     C23     1.140   .     S
H3     C24     1.140   .     S
H4     C19     1.140   .     S
H5     C20     1.140   .     S
H6     C21     1.140   .     S
H7     C31     1.140   .     S
H8     C32     1.140   .     S
H9     C33     1.140   .     S
H10    C34     1.140   .     S
H11    C35     1.140   .     S
H12    C36     1.140   .     S
C13    C19     1.412   .     S
C13    C28     1.423   .     S
C13    S37     1.750   .     S
C14    C29     1.423   .     S
C14    S38     1.750   .     S
C15    S39     1.750   .     S
C15    C30     1.423   .     S
C16    C25     1.423   .     S
C16    H52     1.140   .     S
C16    C22     1.412   .     S
C17    H53     1.140   .     S
C17    C26     1.423   .     S
C18    H54     1.140   .     S
C18    C27     1.423   .     S
C19    C25     1.414   .     S
C20    C26     1.414   .     S
C21    C27     1.414   .     S
C22    C28     1.414   .     S
C23    C29     1.414   .     S
C24    C30     1.414   .     S
C25    N55     1.368   .     S
C26    N57     1.368   .     S
C27    N59     1.368   .     S
C28    N61     1.368   .     S
C29    N63     1.368   .     S
C30    N65     1.368   .     S
C31    N55     1.364   .     S
C31    C68     1.428   .     S
C32    N57     1.364   .     S
C32    C70     1.428   .     S
C33    N59     1.364   .     S
C33    C72     1.428   .     S
C34    N61     1.364   .     S
C34    C74     1.428   .     S
C35    C76     1.428   .     S
C35    N63     1.364   .     S
C36    C78     1.428   .     S
C36    N65     1.364   .     S
S37    O40     1.687   .     S
S37    O43     1.586   .     S
S37    O46     1.589   .     S
S38    O41     1.687   .     S
S38    O44     1.586   .     S
S38    O47     1.589   .     S
S39    O42     1.687   .     S
S39    O45     1.586   .     S
S39    O48     1.589   .     S
O40    H49     1.110   .     S
O41    H50     1.110   .     S
O42    H51     1.110   .     S
N55    H56     1.110   .     S
N57    H58     1.110   .     S
N59    H60     1.110   .     S
N61    H62     1.110   .     S
N63    H64     1.110   .     S
N65    H66     1.110   .     S
C67    C70     1.421   .     S
C67    O79     1.252   .     S
C67    C68     1.420   .     S
C68    C71     1.421   .     S
C69    C72     1.421   .     S
C69    O80     1.252   .     S
C69    C70     1.420   .     S
C71    O81     1.252   .     S
C71    C72     1.420   .     S
C73    C74     1.420   .     S
C73    O82     1.252   .     S
C73    C76     1.421   .     S
C74    C77     1.421   .     S
C75    C78     1.421   .     S
C75    O83     1.252   .     S
C75    C76     1.420   .     S
C77    O84     1.252   .     S
C77    C78     1.420   .     S
