data_OH-H2P-COF
_audit_creation_date              2016-12-13
_audit_creation_method            'Materials Studio'
_symmetry_space_group_name_H-M    'P1'
_symmetry_Int_Tables_number       1
_symmetry_cell_setting            triclinic
loop_
_symmetry_equiv_pos_as_xyz
  x,y,z
_cell_length_a                    39.9528
_cell_length_b                    32.9594
_cell_length_c                    6.7463
_cell_angle_alpha                 90.0000
_cell_angle_beta                  90.0000
_cell_angle_gamma                 90.0000
loop_
_atom_site_label
_atom_site_type_symbol
_atom_site_fract_x
_atom_site_fract_y
_atom_site_fract_z
_atom_site_U_iso_or_equiv
_atom_site_adp_type
_atom_site_occupancy
C1     C     0.24510   0.79160   0.50000   0.00000  Uiso   1.00
C2     C     0.74510   0.29160   0.50000   0.00000  Uiso   1.00
C3     C     0.75490   0.20840   0.50000   0.00000  Uiso   1.00
C4     C     0.25490   0.70840   0.50000   0.00000  Uiso   1.00
C5     C     0.75490   0.79160   0.50000   0.00000  Uiso   1.00
C6     C     0.25490   0.29160   0.50000   0.00000  Uiso   1.00
C7     C     0.24510   0.20840   0.50000   0.00000  Uiso   1.00
C8     C     0.74510   0.70840   0.50000   0.00000  Uiso   1.00
C9     C     0.28280   0.73382   0.50000   0.00000  Uiso   1.00
C10    C     0.78280   0.23382   0.50000   0.00000  Uiso   1.00
C11    C     0.71720   0.26618   0.50000   0.00000  Uiso   1.00
C12    C     0.21720   0.76618   0.50000   0.00000  Uiso   1.00
C13    C     0.71720   0.73382   0.50000   0.00000  Uiso   1.00
C14    C     0.21720   0.23382   0.50000   0.00000  Uiso   1.00
C15    C     0.28280   0.26618   0.50000   0.00000  Uiso   1.00
C16    C     0.78280   0.76618   0.50000   0.00000  Uiso   1.00
C17    C     0.19509   0.69180   0.50000   0.00000  Uiso   1.00
C18    C     0.69509   0.19180   0.50000   0.00000  Uiso   1.00
C19    C     0.80491   0.30820   0.50000   0.00000  Uiso   1.00
C20    C     0.30491   0.80820   0.50000   0.00000  Uiso   1.00
C21    C     0.80491   0.69180   0.50000   0.00000  Uiso   1.00
C22    C     0.30491   0.19180   0.50000   0.00000  Uiso   1.00
C23    C     0.19509   0.30820   0.50000   0.00000  Uiso   1.00
C24    C     0.69509   0.80820   0.50000   0.00000  Uiso   1.00
C25    C     0.27809   0.77673   0.50000   0.00000  Uiso   1.00
C26    C     0.77809   0.27673   0.50000   0.00000  Uiso   1.00
C27    C     0.72191   0.22327   0.50000   0.00000  Uiso   1.00
C28    C     0.22191   0.72327   0.50000   0.00000  Uiso   1.00
C29    C     0.72191   0.77673   0.50000   0.00000  Uiso   1.00
C30    C     0.22191   0.27673   0.50000   0.00000  Uiso   1.00
C31    C     0.27809   0.22327   0.50000   0.00000  Uiso   1.00
C32    C     0.77809   0.72327   0.50000   0.00000  Uiso   1.00
N1     N     0.33653   0.79965   0.50000   0.00000  Uiso   1.00
N2     N     0.83653   0.29965   0.50000   0.00000  Uiso   1.00
N3     N     0.66347   0.20035   0.50000   0.00000  Uiso   1.00
N4     N     0.16347   0.70034   0.50000   0.00000  Uiso   1.00
N5     N     0.66347   0.79965   0.50000   0.00000  Uiso   1.00
N6     N     0.16347   0.29965   0.50000   0.00000  Uiso   1.00
N7     N     0.33653   0.20035   0.50000   0.00000  Uiso   1.00
N8     N     0.83653   0.70034   0.50000   0.00000  Uiso   1.00
N9     N     0.05752   0.50000   0.50000   0.00000  Uiso   1.00
N10    N     0.55752   0.00000   0.50000   0.00000  Uiso   1.00
N11    N     0.94248   0.50000   0.50000   0.00000  Uiso   1.00
N12    N     0.44248   0.00000   0.50000   0.00000  Uiso   1.00
H1     H     0.03352   0.50000   0.50000   0.00000  Uiso   1.00
H2     H     0.53352   0.00000   0.50000   0.00000  Uiso   1.00
H3     H     0.96648   0.50000   0.50000   0.00000  Uiso   1.00
H4     H     0.46648   0.00000   0.50000   0.00000  Uiso   1.00
C33    C     0.07581   0.46595   0.50000   0.00000  Uiso   1.00
C34    C     0.57581   0.96595   0.50000   0.00000  Uiso   1.00
C35    C     0.92419   0.53405   0.50000   0.00000  Uiso   1.00
C36    C     0.42419   0.03405   0.50000   0.00000  Uiso   1.00
C37    C     0.92419   0.46595   0.50000   0.00000  Uiso   1.00
C38    C     0.42419   0.96595   0.50000   0.00000  Uiso   1.00
C39    C     0.07581   0.53405   0.50000   0.00000  Uiso   1.00
C40    C     0.57581   0.03405   0.50000   0.00000  Uiso   1.00
C41    C     0.10899   0.47868   0.50000   0.00000  Uiso   1.00
C42    C     0.60899   0.97868   0.50000   0.00000  Uiso   1.00
C43    C     0.89101   0.52132   0.50000   0.00000  Uiso   1.00
C44    C     0.39101   0.02132   0.50000   0.00000  Uiso   1.00
C45    C     0.89101   0.47868   0.50000   0.00000  Uiso   1.00
C46    C     0.39101   0.97868   0.50000   0.00000  Uiso   1.00
C47    C     0.10899   0.52132   0.50000   0.00000  Uiso   1.00
C48    C     0.60899   0.02132   0.50000   0.00000  Uiso   1.00
H5     H     0.13086   0.45935   0.50000   0.00000  Uiso   1.00
H6     H     0.63086   0.95935   0.50000   0.00000  Uiso   1.00
H7     H     0.86914   0.54065   0.50000   0.00000  Uiso   1.00
H8     H     0.36914   0.04065   0.50000   0.00000  Uiso   1.00
H9     H     0.86914   0.45935   0.50000   0.00000  Uiso   1.00
H10    H     0.36914   0.95935   0.50000   0.00000  Uiso   1.00
H11    H     0.13086   0.54065   0.50000   0.00000  Uiso   1.00
H12    H     0.63086   0.04065   0.50000   0.00000  Uiso   1.00
N13    N     0.50000   0.93239   0.50000   0.00000  Uiso   1.00
N14    N     0.00000   0.43240   0.50000   0.00000  Uiso   1.00
N15    N     0.50000   0.06760   0.50000   0.00000  Uiso   1.00
N16    N     0.00000   0.56760   0.50000   0.00000  Uiso   1.00
C49    C     0.52946   0.90855   0.50000   0.00000  Uiso   1.00
C50    C     0.02946   0.40856   0.50000   0.00000  Uiso   1.00
C51    C     0.47054   0.09144   0.50000   0.00000  Uiso   1.00
C52    C     0.97054   0.59144   0.50000   0.00000  Uiso   1.00
C53    C     0.47054   0.90855   0.50000   0.00000  Uiso   1.00
C54    C     0.97054   0.40856   0.50000   0.00000  Uiso   1.00
C55    C     0.52946   0.09144   0.50000   0.00000  Uiso   1.00
C56    C     0.02946   0.59144   0.50000   0.00000  Uiso   1.00
C57    C     0.51690   0.86645   0.50000   0.00000  Uiso   1.00
C58    C     0.01690   0.36645   0.50000   0.00000  Uiso   1.00
C59    C     0.48310   0.13355   0.50000   0.00000  Uiso   1.00
C60    C     0.98310   0.63355   0.50000   0.00000  Uiso   1.00
C61    C     0.48310   0.86645   0.50000   0.00000  Uiso   1.00
C62    C     0.98310   0.36645   0.50000   0.00000  Uiso   1.00
C63    C     0.51690   0.13355   0.50000   0.00000  Uiso   1.00
C64    C     0.01690   0.63355   0.50000   0.00000  Uiso   1.00
H13    H     0.53223   0.83939   0.50000   0.00000  Uiso   1.00
H14    H     0.03223   0.33940   0.50000   0.00000  Uiso   1.00
H15    H     0.46777   0.16060   0.50000   0.00000  Uiso   1.00
H16    H     0.96777   0.66060   0.50000   0.00000  Uiso   1.00
H17    H     0.46777   0.83939   0.50000   0.00000  Uiso   1.00
H18    H     0.96777   0.33940   0.50000   0.00000  Uiso   1.00
H19    H     0.53223   0.16060   0.50000   0.00000  Uiso   1.00
H20    H     0.03223   0.66060   0.50000   0.00000  Uiso   1.00
C65    C     0.06248   0.42197   0.50000   0.00000  Uiso   1.00
C66    C     0.56248   0.92197   0.50000   0.00000  Uiso   1.00
C67    C     0.93752   0.57803   0.50000   0.00000  Uiso   1.00
C68    C     0.43752   0.07803   0.50000   0.00000  Uiso   1.00
C69    C     0.93752   0.42197   0.50000   0.00000  Uiso   1.00
C70    C     0.43752   0.92197   0.50000   0.00000  Uiso   1.00
C71    C     0.06248   0.57803   0.50000   0.00000  Uiso   1.00
C72    C     0.56248   0.07803   0.50000   0.00000  Uiso   1.00
C73    C     0.08855   0.39035   0.50000   0.00000  Uiso   1.00
C74    C     0.58855   0.89035   0.50000   0.00000  Uiso   1.00
C75    C     0.91145   0.60965   0.50000   0.00000  Uiso   1.00
C76    C     0.41145   0.10965   0.50000   0.00000  Uiso   1.00
C77    C     0.91145   0.39035   0.50000   0.00000  Uiso   1.00
C78    C     0.41145   0.89035   0.50000   0.00000  Uiso   1.00
C79    C     0.08855   0.60965   0.50000   0.00000  Uiso   1.00
C80    C     0.58855   0.10965   0.50000   0.00000  Uiso   1.00
C81    C     0.60102   0.87529   0.67977   0.00000  Uiso   1.00
C82    C     0.10102   0.37529   0.67977   0.00000  Uiso   1.00
C83    C     0.39898   0.12471   0.67977   0.00000  Uiso   1.00
C84    C     0.89898   0.62471   0.67977   0.00000  Uiso   1.00
C85    C     0.39898   0.87529   0.32024   0.00000  Uiso   1.00
C86    C     0.89898   0.37529   0.32024   0.00000  Uiso   1.00
C87    C     0.60102   0.12471   0.32024   0.00000  Uiso   1.00
C88    C     0.10102   0.62471   0.32024   0.00000  Uiso   1.00
C89    C     0.39898   0.12471   0.32024   0.00000  Uiso   1.00
C90    C     0.89898   0.62471   0.32024   0.00000  Uiso   1.00
C91    C     0.60102   0.87529   0.32024   0.00000  Uiso   1.00
C92    C     0.10102   0.37529   0.32024   0.00000  Uiso   1.00
C93    C     0.60102   0.12471   0.67977   0.00000  Uiso   1.00
C94    C     0.10102   0.62471   0.67977   0.00000  Uiso   1.00
C95    C     0.39898   0.87529   0.67977   0.00000  Uiso   1.00
C96    C     0.89898   0.37529   0.67977   0.00000  Uiso   1.00
H21    H     0.09145   0.38675   0.81905   0.00000  Uiso   1.00
H22    H     0.59145   0.88675   0.81905   0.00000  Uiso   1.00
H23    H     0.90855   0.61325   0.81905   0.00000  Uiso   1.00
H24    H     0.40855   0.11325   0.81905   0.00000  Uiso   1.00
H25    H     0.90855   0.38675   0.18095   0.00000  Uiso   1.00
H26    H     0.40855   0.88675   0.18095   0.00000  Uiso   1.00
H27    H     0.09145   0.61325   0.18095   0.00000  Uiso   1.00
H28    H     0.59145   0.11325   0.18095   0.00000  Uiso   1.00
H29    H     0.90855   0.61325   0.18095   0.00000  Uiso   1.00
H30    H     0.40855   0.11325   0.18095   0.00000  Uiso   1.00
H31    H     0.09145   0.38675   0.18095   0.00000  Uiso   1.00
H32    H     0.59145   0.88675   0.18095   0.00000  Uiso   1.00
H33    H     0.09145   0.61325   0.81905   0.00000  Uiso   1.00
H34    H     0.59145   0.11325   0.81905   0.00000  Uiso   1.00
H35    H     0.90855   0.38675   0.81905   0.00000  Uiso   1.00
H36    H     0.40855   0.88675   0.81905   0.00000  Uiso   1.00
C97    C     0.12581   0.34529   0.67939   0.00000  Uiso   1.00
C98    C     0.62581   0.84529   0.67939   0.00000  Uiso   1.00
C99    C     0.87419   0.65471   0.67939   0.00000  Uiso   1.00
C100   C     0.37419   0.15471   0.67939   0.00000  Uiso   1.00
C101   C     0.87419   0.34529   0.32061   0.00000  Uiso   1.00
C102   C     0.37419   0.84529   0.32061   0.00000  Uiso   1.00
C103   C     0.12581   0.65471   0.32061   0.00000  Uiso   1.00
C104   C     0.62581   0.15471   0.32061   0.00000  Uiso   1.00
C105   C     0.87419   0.65471   0.32061   0.00000  Uiso   1.00
C106   C     0.37419   0.15471   0.32061   0.00000  Uiso   1.00
C107   C     0.12581   0.34529   0.32061   0.00000  Uiso   1.00
C108   C     0.62581   0.84529   0.32061   0.00000  Uiso   1.00
C109   C     0.12581   0.65471   0.67939   0.00000  Uiso   1.00
C110   C     0.62581   0.15471   0.67939   0.00000  Uiso   1.00
C111   C     0.87419   0.34529   0.67939   0.00000  Uiso   1.00
C112   C     0.37419   0.84529   0.67939   0.00000  Uiso   1.00
H37    H     0.13543   0.33339   0.81739   0.00000  Uiso   1.00
H38    H     0.63543   0.83339   0.81739   0.00000  Uiso   1.00
H39    H     0.86457   0.66661   0.81739   0.00000  Uiso   1.00
H40    H     0.36457   0.16661   0.81739   0.00000  Uiso   1.00
H41    H     0.86457   0.33339   0.18261   0.00000  Uiso   1.00
H42    H     0.36457   0.83339   0.18261   0.00000  Uiso   1.00
H43    H     0.13543   0.66661   0.18261   0.00000  Uiso   1.00
H44    H     0.63543   0.16661   0.18261   0.00000  Uiso   1.00
H45    H     0.86457   0.66661   0.18261   0.00000  Uiso   1.00
H46    H     0.36457   0.16661   0.18261   0.00000  Uiso   1.00
H47    H     0.13543   0.33339   0.18261   0.00000  Uiso   1.00
H48    H     0.63543   0.83339   0.18261   0.00000  Uiso   1.00
H49    H     0.13543   0.66661   0.81739   0.00000  Uiso   1.00
H50    H     0.63543   0.16661   0.81739   0.00000  Uiso   1.00
H51    H     0.86457   0.33339   0.81739   0.00000  Uiso   1.00
H52    H     0.36457   0.83339   0.81739   0.00000  Uiso   1.00
C113   C     0.13832   0.33042   0.50000   0.00000  Uiso   1.00
C114   C     0.63832   0.83042   0.50000   0.00000  Uiso   1.00
C115   C     0.86168   0.66958   0.50000   0.00000  Uiso   1.00
C116   C     0.36168   0.16958   0.50000   0.00000  Uiso   1.00
C117   C     0.86168   0.33042   0.50000   0.00000  Uiso   1.00
C118   C     0.36168   0.83042   0.50000   0.00000  Uiso   1.00
C119   C     0.13832   0.66958   0.50000   0.00000  Uiso   1.00
C120   C     0.63832   0.16958   0.50000   0.00000  Uiso   1.00
H53    H     0.24037   0.82395   0.50000   0.00000  Uiso   1.00
O1     O     0.31366   0.71384   0.50000   0.00000  Uiso   1.00
H54    H     0.20259   0.66009   0.50000   0.00000  Uiso   1.00
H55    H     0.33418   0.73149   0.50000   0.00000  Uiso   1.00
H56    H     0.74037   0.32395   0.50000   0.00000  Uiso   1.00
O2     O     0.81366   0.21384   0.50000   0.00000  Uiso   1.00
H57    H     0.70259   0.16009   0.50000   0.00000  Uiso   1.00
H58    H     0.83418   0.23149   0.50000   0.00000  Uiso   1.00
H59    H     0.75963   0.17605   0.50000   0.00000  Uiso   1.00
O3     O     0.68634   0.28616   0.50000   0.00000  Uiso   1.00
H60    H     0.79741   0.33991   0.50000   0.00000  Uiso   1.00
H61    H     0.66582   0.26851   0.50000   0.00000  Uiso   1.00
H62    H     0.25963   0.67605   0.50000   0.00000  Uiso   1.00
O4     O     0.18634   0.78616   0.50000   0.00000  Uiso   1.00
H63    H     0.29741   0.83991   0.50000   0.00000  Uiso   1.00
H64    H     0.16582   0.76851   0.50000   0.00000  Uiso   1.00
H65    H     0.75963   0.82395   0.50000   0.00000  Uiso   1.00
O5     O     0.68634   0.71384   0.50000   0.00000  Uiso   1.00
H66    H     0.79741   0.66009   0.50000   0.00000  Uiso   1.00
H67    H     0.66582   0.73149   0.50000   0.00000  Uiso   1.00
H68    H     0.25963   0.32395   0.50000   0.00000  Uiso   1.00
O6     O     0.18634   0.21384   0.50000   0.00000  Uiso   1.00
H69    H     0.29741   0.16009   0.50000   0.00000  Uiso   1.00
H70    H     0.16582   0.23149   0.50000   0.00000  Uiso   1.00
H71    H     0.24037   0.17605   0.50000   0.00000  Uiso   1.00
O7     O     0.31366   0.28616   0.50000   0.00000  Uiso   1.00
H72    H     0.20259   0.33991   0.50000   0.00000  Uiso   1.00
H73    H     0.33418   0.26851   0.50000   0.00000  Uiso   1.00
H74    H     0.74037   0.67605   0.50000   0.00000  Uiso   1.00
O8     O     0.81366   0.78616   0.50000   0.00000  Uiso   1.00
H75    H     0.70259   0.83991   0.50000   0.00000  Uiso   1.00
H76    H     0.83418   0.76851   0.50000   0.00000  Uiso   1.00
H77    H     0.50000   0.96162   0.50000   0.00000  Uiso   1.00
H78    H     0.00000   0.46162   0.50000   0.00000  Uiso   1.00
H79    H     0.50000   0.03838   0.50000   0.00000  Uiso   1.00
H80    H     0.00000   0.53838   0.50000   0.00000  Uiso   1.00
loop_
_geom_bond_atom_site_label_1
_geom_bond_atom_site_label_2
_geom_bond_distance
_geom_bond_site_symmetry_2
_ccdc_geom_bond_type
C1     C12     1.395   .     S
C1     C25     1.406   .     S
C1     H53     1.083   .     S
C2     C26     1.406   .     S
C2     H56     1.083   .     S
C2     C11     1.395   .     S
C3     H59     1.083   .     S
C3     C10     1.395   .     S
C3     C27     1.406   .     S
C4     C28     1.406   .     S
C4     C9      1.395   .     S
C4     H62     1.083   .     S
C5     C16     1.395   .     S
C5     C29     1.406   .     S
C5     H65     1.083   .     S
C6     C30     1.406   .     S
C6     H68     1.083   .     S
C6     C15     1.395   .     S
C7     H71     1.083   .     S
C7     C14     1.395   .     S
C7     C31     1.406   .     S
C8     C13     1.395   .     S
C8     C32     1.406   .     S
C8     H74     1.083   .     S
C9     O1      1.398   .     S
C9     C25     1.427   .     S
C10    C26     1.427   .     S
C10    O2      1.398   .     S
C11    C27     1.427   .     S
C11    O3      1.398   .     S
C12    O4      1.398   .     S
C12    C28     1.427   .     S
C13    O5      1.398   .     S
C13    C29     1.427   .     S
C14    C30     1.427   .     S
C14    O6      1.398   .     S
C15    C31     1.427   .     S
C15    O7      1.398   .     S
C16    O8      1.398   .     S
C16    C32     1.427   .     S
C17    H54     1.087   .     S
C17    N4      1.294   .     S
C17    C28     1.491   .     S
C18    N3      1.294   .     S
C18    C27     1.491   .     S
C18    H57     1.087   .     S
C19    N2      1.294   .     S
C19    C26     1.491   .     S
C19    H60     1.087   .     S
C20    H63     1.087   .     S
C20    C25     1.491   .     S
C20    N1      1.294   .     S
C21    H66     1.087   .     S
C21    N8      1.294   .     S
C21    C32     1.491   .     S
C22    N7      1.294   .     S
C22    C31     1.491   .     S
C22    H69     1.087   .     S
C23    N6      1.294   .     S
C23    C30     1.491   .     S
C23    H72     1.087   .     S
C24    H75     1.087   .     S
C24    N5      1.294   .     S
C24    C29     1.491   .     S
N1     C118    1.428   .     S
N2     C117    1.428   .     S
N3     C120    1.428   .     S
N4     C119    1.428   .     S
N5     C114    1.428   .     S
N6     C113    1.428   .     S
N7     C116    1.428   .     S
N8     C115    1.428   .     S
N9     C39     1.339   .     S
N9     H1      0.959   .     S
N9     C33     1.339   .     S
N10    H2      0.959   .     S
N10    C40     1.339   .     S
N11    H3      0.959   .     S
N11    C35     1.339   .     S
N11    C37     1.339   .     S
N12    C36     1.339   .     S
N12    H4      0.959   .     S
C33    C41     1.390   .     S
C33    C65     1.544   .     S
C34    C66     1.544   .     S
C34    C42     1.390   .     S
C35    C43     1.390   .     S
C35    C67     1.544   .     S
C36    C44     1.390   .     S
C36    C68     1.544   .     S
C37    C45     1.390   .     S
C37    C69     1.544   .     S
C38    C70     1.544   .     S
C38    C46     1.390   .     S
C39    C47     1.390   .     S
C39    C71     1.544   .     S
C40    C48     1.390   .     S
C40    C72     1.544   .     S
C41    H5      1.081   .     S
C41    C47     1.405   .     S
C42    H6      1.081   .     S
C43    H7      1.081   .     S
C43    C45     1.405   .     S
C44    H8      1.081   .     S
C45    H9      1.081   .     S
C46    H10     1.081   .     S
C47    H11     1.081   .     S
C48    H12     1.081   .     S
N13    H77     0.963   .     S
N13    C49     1.415   .     S
N13    C53     1.415   .     S
N14    H78     0.963   .     S
N14    C50     1.415   .     S
N15    C55     1.415   .     S
N15    C51     1.415   .     S
N15    H79     0.963   .     S
N16    H80     0.963   .     S
N16    C56     1.415   .     S
C49    C57     1.476   .     S
C49    C66     1.391   .     S
C50    C65     1.391   .     S
C50    C58     1.476   .     S
C51    C68     1.391   .     S
C51    C59     1.476   .     S
C52    C60     1.476   .     S
C52    C67     1.391   .     S
C53    C61     1.476   .     S
C53    C70     1.391   .     S
C54    C69     1.391   .     S
C54    C62     1.476   .     S
C55    C72     1.391   .     S
C55    C63     1.476   .     S
C56    C64     1.476   .     S
C56    C71     1.391   .     S
C57    C61     1.350   .     S
C57    H13     1.082   .     S
C58    H14     1.082   .     S
C59    H15     1.082   .     S
C59    C63     1.350   .     S
C60    H16     1.082   .     S
C61    H17     1.082   .     S
C62    H18     1.082   .     S
C63    H19     1.082   .     S
C64    H20     1.082   .     S
C65    C73     1.473   .     S
C66    C74     1.473   .     S
C67    C75     1.473   .     S
C68    C76     1.473   .     S
C69    C77     1.473   .     S
C70    C78     1.473   .     S
C71    C79     1.473   .     S
C72    C80     1.473   .     S
C73    C92     1.402   .     S
C73    C82     1.402   .     S
C74    C91     1.402   .     S
C74    C81     1.402   .     S
C75    C90     1.402   .     S
C75    C84     1.402   .     S
C76    C89     1.402   .     S
C76    C83     1.402   .     S
C77    C86     1.402   .     S
C77    C96     1.402   .     S
C78    C85     1.402   .     S
C78    C95     1.402   .     S
C79    C88     1.402   .     S
C79    C94     1.402   .     S
C80    C87     1.402   .     S
C80    C93     1.402   .     S
C81    C98     1.400   .     S
C81    H22     1.082   .     S
C82    C97     1.400   .     S
C82    H21     1.082   .     S
C83    C100    1.400   .     S
C83    H24     1.082   .     S
C84    C99     1.400   .     S
C84    H23     1.082   .     S
C85    C102    1.400   .     S
C85    H26     1.082   .     S
C86    C101    1.400   .     S
C86    H25     1.082   .     S
C87    C104    1.400   .     S
C87    H28     1.082   .     S
C88    C103    1.400   .     S
C88    H27     1.082   .     S
C89    C106    1.400   .     S
C89    H30     1.082   .     S
C90    C105    1.400   .     S
C90    H29     1.082   .     S
C91    C108    1.400   .     S
C91    H32     1.082   .     S
C92    C107    1.400   .     S
C92    H31     1.082   .     S
C93    C110    1.400   .     S
C93    H34     1.082   .     S
C94    C109    1.400   .     S
C94    H33     1.082   .     S
C95    C112    1.400   .     S
C95    H36     1.082   .     S
C96    C111    1.400   .     S
C96    H35     1.082   .     S
C97    C113    1.398   .     S
C97    H37     1.081   .     S
C98    C114    1.398   .     S
C98    H38     1.081   .     S
C99    C115    1.398   .     S
C99    H39     1.081   .     S
C100   C116    1.398   .     S
C100   H40     1.081   .     S
C101   C117    1.398   .     S
C101   H41     1.081   .     S
C102   C118    1.398   .     S
C102   H42     1.081   .     S
C103   C119    1.398   .     S
C103   H43     1.081   .     S
C104   C120    1.398   .     S
C104   H44     1.081   .     S
C105   C115    1.398   .     S
C105   H45     1.081   .     S
C106   C116    1.398   .     S
C106   H46     1.081   .     S
C107   C113    1.398   .     S
C107   H47     1.081   .     S
C108   C114    1.398   .     S
C108   H48     1.081   .     S
C109   C119    1.398   .     S
C109   H49     1.081   .     S
C110   C120    1.398   .     S
C110   H50     1.081   .     S
C111   C117    1.398   .     S
C111   H51     1.081   .     S
C112   C118    1.398   .     S
C112   H52     1.081   .     S
O1     H55     1.005   .     S
O2     H58     1.005   .     S
O3     H61     1.005   .     S
O4     H64     1.005   .     S
O5     H67     1.005   .     S
O6     H70     1.005   .     S
O7     H73     1.005   .     S
O8     H76     1.005   .     S
