data_OH-TAPH-COF
_audit_creation_date              2016-12-13
_audit_creation_method            'Materials Studio'
_symmetry_space_group_name_H-M    'P1'
_symmetry_Int_Tables_number       1
_symmetry_cell_setting            triclinic
loop_
_symmetry_equiv_pos_as_xyz
  x,y,z
_cell_length_a                    25.8033
_cell_length_b                    6.7438
_cell_length_c                    25.8823
_cell_angle_alpha                 90.0000
_cell_angle_beta                  100.4100
_cell_angle_gamma                 90.0000
loop_
_atom_site_label
_atom_site_type_symbol
_atom_site_fract_x
_atom_site_fract_y
_atom_site_fract_z
_atom_site_U_iso_or_equiv
_atom_site_adp_type
_atom_site_occupancy
C1     C     0.53229   0.50000   0.54962   0.00000  Uiso   1.00
C2     C     0.04640   0.50000   0.03653   0.00000  Uiso   1.00
C3     C     0.46771   0.50000   0.45038   0.00000  Uiso   1.00
C4     C     0.95360   0.50000   0.96347   0.00000  Uiso   1.00
C5     C     0.52255   0.50000   0.45478   0.00000  Uiso   1.00
C6     C     0.95076   0.50000   0.01674   0.00000  Uiso   1.00
C7     C     0.47745   0.50000   0.54522   0.00000  Uiso   1.00
C8     C     0.04924   0.50000   0.98326   0.00000  Uiso   1.00
C9     C     0.38673   0.50000   0.49002   0.00000  Uiso   1.00
C10    C     0.99750   0.50000   0.88699   0.00000  Uiso   1.00
C11    C     0.61327   0.50000   0.50998   0.00000  Uiso   1.00
C12    C     0.00250   0.50000   0.11301   0.00000  Uiso   1.00
C13    C     0.55530   0.50000   0.50447   0.00000  Uiso   1.00
C14    C     0.99826   0.50000   0.05478   0.00000  Uiso   1.00
C15    C     0.44470   0.50000   0.49553   0.00000  Uiso   1.00
C16    C     0.00174   0.50000   0.94522   0.00000  Uiso   1.00
N1     N     0.63574   0.50000   0.46897   0.00000  Uiso   1.00
N2     N     0.96211   0.50000   0.13628   0.00000  Uiso   1.00
N3     N     0.36426   0.50000   0.53103   0.00000  Uiso   1.00
N4     N     0.03789   0.50000   0.86372   0.00000  Uiso   1.00
N5     N     0.05728   0.50000   0.44157   0.00000  Uiso   1.00
N6     N     0.94272   0.50000   0.55844   0.00000  Uiso   1.00
C17    C     0.04125   0.50000   0.38938   0.00000  Uiso   1.00
C18    C     0.89025   0.50000   0.54342   0.00000  Uiso   1.00
C19    C     0.95875   0.50000   0.61062   0.00000  Uiso   1.00
C20    C     0.10975   0.50000   0.45658   0.00000  Uiso   1.00
C21    C     0.08710   0.50000   0.36823   0.00000  Uiso   1.00
C22    C     0.87002   0.50000   0.58970   0.00000  Uiso   1.00
C23    C     0.91290   0.50000   0.63177   0.00000  Uiso   1.00
C24    C     0.12998   0.50000   0.41030   0.00000  Uiso   1.00
H3     H     0.08943   0.50000   0.32694   0.00000  Uiso   1.00
H4     H     0.82880   0.50000   0.59285   0.00000  Uiso   1.00
H5     H     0.91057   0.50000   0.67306   0.00000  Uiso   1.00
H6     H     0.17120   0.50000   0.40715   0.00000  Uiso   1.00
N7     N     0.93200   0.50000   0.43328   0.00000  Uiso   1.00
N8     N     0.06800   0.50000   0.56672   0.00000  Uiso   1.00
C25    C     0.93736   0.50000   0.37983   0.00000  Uiso   1.00
C26    C     0.87868   0.50000   0.43969   0.00000  Uiso   1.00
C27    C     0.06264   0.50000   0.62017   0.00000  Uiso   1.00
C28    C     0.12132   0.50000   0.56031   0.00000  Uiso   1.00
C29    C     0.88250   0.50000   0.35104   0.00000  Uiso   1.00
C30    C     0.84885   0.50000   0.38538   0.00000  Uiso   1.00
C31    C     0.11750   0.50000   0.64896   0.00000  Uiso   1.00
C32    C     0.15115   0.50000   0.61462   0.00000  Uiso   1.00
H7     H     0.87056   0.50000   0.30877   0.00000  Uiso   1.00
H8     H     0.80637   0.50000   0.37426   0.00000  Uiso   1.00
H9     H     0.12944   0.50000   0.69123   0.00000  Uiso   1.00
H10    H     0.19363   0.50000   0.62574   0.00000  Uiso   1.00
C33    C     0.98374   0.50000   0.35953   0.00000  Uiso   1.00
C34    C     0.85929   0.50000   0.48648   0.00000  Uiso   1.00
C35    C     0.01626   0.50000   0.64047   0.00000  Uiso   1.00
C36    C     0.14071   0.50000   0.51352   0.00000  Uiso   1.00
C37    C     0.97792   0.50000   0.30184   0.00000  Uiso   1.00
C38    C     0.80153   0.50000   0.48178   0.00000  Uiso   1.00
C39    C     0.02208   0.50000   0.69816   0.00000  Uiso   1.00
C40    C     0.19847   0.50000   0.51822   0.00000  Uiso   1.00
C41    C     0.97528   0.32018   0.27431   0.00000  Uiso   1.00
C42    C     0.77397   0.67981   0.47967   0.00000  Uiso   1.00
C43    C     0.02472   0.32018   0.72569   0.00000  Uiso   1.00
C44    C     0.22603   0.67981   0.52033   0.00000  Uiso   1.00
C45    C     0.02472   0.67982   0.72569   0.00000  Uiso   1.00
C46    C     0.22603   0.32018   0.52033   0.00000  Uiso   1.00
C47    C     0.97528   0.67982   0.27431   0.00000  Uiso   1.00
C48    C     0.77397   0.32018   0.47967   0.00000  Uiso   1.00
H11    H     0.97723   0.18086   0.29535   0.00000  Uiso   1.00
H12    H     0.79503   0.81912   0.48124   0.00000  Uiso   1.00
H13    H     0.02277   0.18086   0.70465   0.00000  Uiso   1.00
H14    H     0.20497   0.81912   0.51876   0.00000  Uiso   1.00
H15    H     0.02277   0.81914   0.70465   0.00000  Uiso   1.00
H16    H     0.20497   0.18088   0.51876   0.00000  Uiso   1.00
H17    H     0.97723   0.81914   0.29535   0.00000  Uiso   1.00
H18    H     0.79503   0.18088   0.48124   0.00000  Uiso   1.00
C49    C     0.96999   0.32051   0.21954   0.00000  Uiso   1.00
C50    C     0.71912   0.67949   0.47539   0.00000  Uiso   1.00
C51    C     0.03001   0.32051   0.78046   0.00000  Uiso   1.00
C52    C     0.28088   0.67949   0.52461   0.00000  Uiso   1.00
C53    C     0.03001   0.67948   0.78046   0.00000  Uiso   1.00
C54    C     0.28088   0.32051   0.52461   0.00000  Uiso   1.00
C55    C     0.96999   0.67948   0.21954   0.00000  Uiso   1.00
C56    C     0.71912   0.32051   0.47539   0.00000  Uiso   1.00
H19    H     0.96773   0.18233   0.19808   0.00000  Uiso   1.00
H20    H     0.69767   0.81775   0.47355   0.00000  Uiso   1.00
H21    H     0.03227   0.18233   0.80192   0.00000  Uiso   1.00
H22    H     0.30233   0.81775   0.52645   0.00000  Uiso   1.00
H23    H     0.03227   0.81767   0.80192   0.00000  Uiso   1.00
H24    H     0.30233   0.18225   0.52645   0.00000  Uiso   1.00
H25    H     0.96773   0.81767   0.19808   0.00000  Uiso   1.00
H26    H     0.69767   0.18225   0.47355   0.00000  Uiso   1.00
C57    C     0.96759   0.50000   0.19216   0.00000  Uiso   1.00
C58    C     0.69169   0.50000   0.47347   0.00000  Uiso   1.00
C59    C     0.03241   0.50000   0.80784   0.00000  Uiso   1.00
C60    C     0.30831   0.50000   0.52653   0.00000  Uiso   1.00
H27    H     0.55676   0.50000   0.58832   0.00000  Uiso   1.00
H28    H     0.53948   0.50000   0.41940   0.00000  Uiso   1.00
H29    H     0.36283   0.50000   0.45093   0.00000  Uiso   1.00
H30    H     0.08343   0.50000   0.06399   0.00000  Uiso   1.00
O1     O     0.89969   0.50000   0.02775   0.00000  Uiso   1.00
H31    H     0.95833   0.50000   0.86298   0.00000  Uiso   1.00
H32    H     0.89638   0.50000   0.06582   0.00000  Uiso   1.00
H33    H     0.96139   0.50000   0.46212   0.00000  Uiso   1.00
H34    H     0.44324   0.50000   0.41168   0.00000  Uiso   1.00
H35    H     0.46052   0.50000   0.58060   0.00000  Uiso   1.00
H36    H     0.63717   0.50000   0.54907   0.00000  Uiso   1.00
H37    H     0.91657   0.50000   0.93602   0.00000  Uiso   1.00
O2     O     0.10031   0.50000   0.97226   0.00000  Uiso   1.00
H38    H     0.04167   0.50000   0.13702   0.00000  Uiso   1.00
H39    H     0.10362   0.50000   0.93418   0.00000  Uiso   1.00
H40    H     0.03861   0.50000   0.53788   0.00000  Uiso   1.00
loop_
_geom_bond_atom_site_label_1
_geom_bond_atom_site_label_2
_geom_bond_distance
_geom_bond_site_symmetry_2
_ccdc_geom_bond_type
C1     C13     1.403   .     S
C1     C7      1.399   .     S
C1     H27     1.083   .     S
C2     H30     1.083   .     S
C3     C5      1.399   .     S
C3     H34     1.083   .     S
C3     C15     1.403   .     S
C4     H37     1.083   .     S
C5     H28     1.083   .     S
C5     C13     1.406   .     S
C6     O1      1.398   .     S
C6     C14     1.427   .     S
C7     C15     1.406   .     S
C7     H35     1.083   .     S
C8     O2      1.398   .     S
C8     C16     1.427   .     S
C9     N3      1.298   .     S
C9     C15     1.477   .     S
C9     H29     1.085   .     S
C10    H31     1.087   .     S
C11    H36     1.085   .     S
C11    C13     1.477   .     S
C11    N1      1.298   .     S
C12    H38     1.087   .     S
N1     C58     1.427   .     S
N2     C57     1.427   .     S
N3     C60     1.427   .     S
N4     C59     1.427   .     S
N5     C20     1.339   .     S
N5     C17     1.339   .     S
N6     C19     1.339   .     S
N6     C18     1.339   .     S
C17    C21     1.390   .     S
C18    C34     1.544   .     S
C18    C22     1.390   .     S
C19    C23     1.390   .     S
C20    C24     1.390   .     S
C20    C36     1.544   .     S
C21    C24     1.405   .     S
C21    H3      1.081   .     S
C22    H4      1.081   .     S
C22    C23     1.405   .     S
C23    H5      1.081   .     S
C24    H6      1.081   .     S
N7     H33     0.963   .     S
N7     C26     1.415   .     S
N7     C25     1.415   .     S
N8     C27     1.415   .     S
N8     C28     1.415   .     S
N8     H40     0.963   .     S
C25    C29     1.476   .     S
C25    C33     1.391   .     S
C26    C34     1.391   .     S
C26    C30     1.476   .     S
C27    C31     1.476   .     S
C27    C35     1.391   .     S
C28    C32     1.476   .     S
C28    C36     1.391   .     S
C29    C30     1.350   .     S
C29    H7      1.082   .     S
C30    H8      1.082   .     S
C31    H9      1.082   .     S
C31    C32     1.350   .     S
C32    H10     1.082   .     S
C33    C37     1.473   .     S
C34    C38     1.473   .     S
C35    C39     1.473   .     S
C36    C40     1.473   .     S
C37    C47     1.402   .     S
C37    C41     1.402   .     S
C38    C48     1.402   .     S
C38    C42     1.402   .     S
C39    C43     1.402   .     S
C39    C45     1.402   .     S
C40    C46     1.402   .     S
C40    C44     1.402   .     S
C41    C49     1.400   .     S
C41    H11     1.082   .     S
C42    C50     1.399   .     S
C42    H12     1.082   .     S
C43    H13     1.082   .     S
C43    C51     1.400   .     S
C44    C52     1.399   .     S
C44    H14     1.082   .     S
C45    H15     1.082   .     S
C45    C53     1.400   .     S
C46    C54     1.399   .     S
C46    H16     1.082   .     S
C47    C55     1.400   .     S
C47    H17     1.082   .     S
C48    C56     1.399   .     S
C48    H18     1.082   .     S
C49    C57     1.398   .     S
C49    H19     1.081   .     S
C50    H20     1.081   .     S
C50    C58     1.398   .     S
C51    C59     1.398   .     S
C51    H21     1.081   .     S
C52    H22     1.081   .     S
C52    C60     1.398   .     S
C53    H23     1.081   .     S
C53    C59     1.398   .     S
C54    C60     1.398   .     S
C54    H24     1.081   .     S
C55    H25     1.081   .     S
C55    C57     1.398   .     S
C56    C58     1.398   .     S
C56    H26     1.081   .     S
O1     H32     1.004   .     S
O2     H39     1.004   .     S
