data_Pa-Py
_audit_creation_date              2016-12-13
_audit_creation_method            'Materials Studio'
_symmetry_space_group_name_H-M    'P1'
_symmetry_Int_Tables_number       1
_symmetry_cell_setting            triclinic
loop_
_symmetry_equiv_pos_as_xyz
  x,y,z
_cell_length_a                    23.2823
_cell_length_b                    23.2823
_cell_length_c                    3.2500
_cell_angle_alpha                 90.0000
_cell_angle_beta                  90.0000
_cell_angle_gamma                 120.0000
loop_
_atom_site_label
_atom_site_type_symbol
_atom_site_fract_x
_atom_site_fract_y
_atom_site_fract_z
_atom_site_U_iso_or_equiv
_atom_site_adp_type
_atom_site_occupancy
C1     C     0.41525   0.61406   0.61238   0.00000  Uiso   1.00
C2     C     0.58475   0.38594   0.61238   0.00000  Uiso   1.00
N3     N     0.39490   0.54150   0.61238   0.00000  Uiso   1.00
N4     N     0.60509   0.45850   0.61238   0.00000  Uiso   1.00
C5     C     0.44705   0.52109   0.61238   0.00000  Uiso   1.00
C6     C     0.55295   0.47891   0.61238   0.00000  Uiso   1.00
N7     N     0.42586   0.44697   0.61238   0.00000  Uiso   1.00
C8     C     0.57414   0.55303   0.61238   0.00000  Uiso   1.00
C9     C     0.47886   0.42587   0.61238   0.00000  Uiso   1.00
C10    C     0.52114   0.57413   0.61238   0.00000  Uiso   1.00
H11    H     0.47005   0.65347   0.61238   0.00000  Uiso   1.00
H12    H     0.52995   0.34653   0.61238   0.00000  Uiso   1.00
H13    H     0.62885   0.59210   0.61238   0.00000  Uiso   1.00
H14    H     0.46322   0.37094   0.61238   0.00000  Uiso   1.00
H15    H     0.53678   0.62906   0.61238   0.00000  Uiso   1.00
H16    H     0.65843   0.49687   0.61238   0.00000  Uiso   1.00
H17    H     0.34157   0.50313   0.61238   0.00000  Uiso   1.00
C18    C     0.69559   0.40247   0.61238   0.00000  Uiso   1.00
C19    C     0.62548   0.36291   0.61238   0.00000  Uiso   1.00
C20    C     0.30441   0.59753   0.61238   0.00000  Uiso   1.00
C21    C     0.37452   0.63709   0.61238   0.00000  Uiso   1.00
O22    O     0.72044   0.45958   0.61238   0.00000  Uiso   1.00
O23    O     0.27956   0.54042   0.61238   0.00000  Uiso   1.00
C24    C     0.38594  -0.19881   0.61238   0.00000  Uiso   1.00
C25    C     0.61406   0.19881   0.61238   0.00000  Uiso   1.00
N26    N     0.45850  -0.14660   0.61238   0.00000  Uiso   1.00
N27    N     0.54150   0.14659   0.61238   0.00000  Uiso   1.00
C28    C     0.47891  -0.07404   0.61238   0.00000  Uiso   1.00
C29    C     0.52109   0.07404   0.61238   0.00000  Uiso   1.00
N30    N     0.55303  -0.02111   0.61238   0.00000  Uiso   1.00
C31    C     0.44697   0.02111   0.61238   0.00000  Uiso   1.00
C32    C     0.57413   0.05299   0.61238   0.00000  Uiso   1.00
C33    C     0.42587  -0.05299   0.61238   0.00000  Uiso   1.00
H34    H     0.34653  -0.18342   0.61238   0.00000  Uiso   1.00
H35    H     0.65347   0.18342   0.61238   0.00000  Uiso   1.00
H36    H     0.40790   0.03675   0.61238   0.00000  Uiso   1.00
H37    H     0.62906   0.09228   0.61238   0.00000  Uiso   1.00
H38    H     0.37094  -0.09228   0.61238   0.00000  Uiso   1.00
H39    H     0.50313   0.16155   0.61238   0.00000  Uiso   1.00
H40    H     0.49687  -0.16155   0.61238   0.00000  Uiso   1.00
C41    C     0.59753   0.29312   0.61238   0.00000  Uiso   1.00
C42    C     0.63709   0.26258   0.61238   0.00000  Uiso   1.00
C43    C     0.40247  -0.29312   0.61238   0.00000  Uiso   1.00
C44    C     0.36291  -0.26258   0.61238   0.00000  Uiso   1.00
O45    O     0.54042   0.26086   0.61238   0.00000  Uiso   1.00
O46    O     0.45958  -0.26086   0.61238   0.00000  Uiso   1.00
C47    C     1.19881   0.58475   0.61238   0.00000  Uiso   1.00
C48    C     0.80119   0.41525   0.61238   0.00000  Uiso   1.00
N49    N     1.14660   0.60510   0.61238   0.00000  Uiso   1.00
N50    N     0.85341   0.39491   0.61238   0.00000  Uiso   1.00
C51    C     1.07404   0.55295   0.61238   0.00000  Uiso   1.00
C52    C     0.92596   0.44705   0.61238   0.00000  Uiso   1.00
N53    N     1.02111   0.57414   0.61238   0.00000  Uiso   1.00
C54    C     0.97889   0.42586   0.61238   0.00000  Uiso   1.00
C55    C     0.94701   0.52114   0.61238   0.00000  Uiso   1.00
C56    C     1.05299   0.47886   0.61238   0.00000  Uiso   1.00
H57    H     1.18342   0.52995   0.61238   0.00000  Uiso   1.00
H58    H     0.81658   0.47005   0.61238   0.00000  Uiso   1.00
H59    H     0.96325   0.37115   0.61238   0.00000  Uiso   1.00
H60    H     0.90772   0.53678   0.61238   0.00000  Uiso   1.00
H61    H     1.09228   0.46322   0.61238   0.00000  Uiso   1.00
H62    H     0.83845   0.34157   0.61238   0.00000  Uiso   1.00
H63    H     1.16155   0.65843   0.61238   0.00000  Uiso   1.00
C64    C     0.70688   0.30441   0.61238   0.00000  Uiso   1.00
C65    C     0.73742   0.37452   0.61238   0.00000  Uiso   1.00
C66    C     1.29312   0.69559   0.61238   0.00000  Uiso   1.00
C67    C     1.26258   0.62548   0.61238   0.00000  Uiso   1.00
O68    O     0.73914   0.27956   0.61238   0.00000  Uiso   1.00
O69    O     1.26086   0.72044   0.61238   0.00000  Uiso   1.00
loop_
_geom_bond_atom_site_label_1
_geom_bond_atom_site_label_2
_geom_bond_distance
_geom_bond_site_symmetry_2
_ccdc_geom_bond_type
C1     N3      1.509   .     S
C1     H11     1.140   .     S
C1     C21     1.302   .     S
C2     C19     1.302   .     S
C2     N4      1.509   .     S
C2     H12     1.140   .     S
N3     H17     1.109   .     S
N3     C5      1.509   .     S
N4     C6      1.509   .     S
N4     H16     1.109   .     S
C5     N7      1.540   .     S
C5     C10     1.540   .     S
C6     C8      1.540   .     S
C6     C9      1.540   .     S
N7     C9      1.540   .     S
C8     C10     1.540   .     S
C8     H13     1.136   .     S
C9     H14     1.141   .     S
C10    H15     1.141   .     S
C18    C19     1.417   .     S
C18    C65     1.416   .     S
C18    O22     1.155   .     S
C19    C41     1.416   .     S
C20    O23     1.155   .     S
C20    C21     1.417   .     S
C24    C44     1.302   .     S
C24    H34     1.140   .     S
C24    N26     1.509   .     S
C25    C42     1.302   .     S
C25    H35     1.140   .     S
C25    N27     1.509   .     S
N26    H40     1.109   .     S
N26    C28     1.509   .     S
N27    H39     1.109   .     S
N27    C29     1.509   .     S
C28    C33     1.540   .     S
C28    N30     1.540   .     S
C29    C31     1.540   .     S
C29    C32     1.540   .     S
N30    C32     1.540   .     S
C31    H36     1.136   .     S
C31    C33     1.540   .     S
C32    H37     1.141   .     S
C33    H38     1.141   .     S
C41    O45     1.155   .     S
C41    C42     1.417   .     S
C42    C64     1.416   .     S
C43    O46     1.155   .     S
C43    C44     1.417   .     S
C47    N49     1.509   .     S
C47    H57     1.140   .     S
C47    C67     1.302   .     S
C48    C65     1.302   .     S
C48    N50     1.509   .     S
C48    H58     1.140   .     S
N49    C51     1.509   .     S
N49    H63     1.109   .     S
N50    C52     1.509   .     S
N50    H62     1.109   .     S
C51    N53     1.540   .     S
C51    C56     1.540   .     S
C52    C55     1.540   .     S
C52    C54     1.540   .     S
N53    C55     1.540   .     S
C54    H59     1.136   .     S
C54    C56     1.540   .     S
C55    H60     1.141   .     S
C56    H61     1.141   .     S
C64    O68     1.155   .     S
C64    C65     1.417   .     S
C66    C67     1.417   .     S
C66    O69     1.155   .     S
