data_PC-COF
_audit_creation_date              2016-12-13
_audit_creation_method            'Materials Studio'
_symmetry_space_group_name_H-M    'P1'
_symmetry_Int_Tables_number       1
_symmetry_cell_setting            triclinic
loop_
_symmetry_equiv_pos_as_xyz
  x,y,z
_cell_length_a                    61.0419
_cell_length_b                    3.5335
_cell_length_c                    59.1305
_cell_angle_alpha                 90.0000
_cell_angle_beta                  61.0662
_cell_angle_gamma                 90.0000
loop_
_atom_site_label
_atom_site_type_symbol
_atom_site_fract_x
_atom_site_fract_y
_atom_site_fract_z
_atom_site_U_iso_or_equiv
_atom_site_adp_type
_atom_site_occupancy
C1     C     0.34093   0.50000   0.34985   0.00000  Uiso   1.00
C2     C     0.31432   0.50000   0.36298   0.00000  Uiso   1.00
C3     C     0.29894   0.50000   0.35095   0.00000  Uiso   1.00
C4     C     0.31247   0.50000   0.32346   0.00000  Uiso   1.00
C5     C     0.33892   0.50000   0.30803   0.00000  Uiso   1.00
C6     C     0.35184   0.50000   0.32254   0.00000  Uiso   1.00
H1     H     0.30537   0.50000   0.38495   0.00000  Uiso   1.00
H2     H     0.30197   0.50000   0.31192   0.00000  Uiso   1.00
H3     H     0.37317   0.50000   0.31218   0.00000  Uiso   1.00
C7     C     0.35177   0.50000   0.28005   0.00000  Uiso   1.00
C8     C     0.37845   0.50000   0.26482   0.00000  Uiso   1.00
C9     C     0.39117   0.50000   0.23765   0.00000  Uiso   1.00
C10    C     0.37805   0.50000   0.22366   0.00000  Uiso   1.00
C11    C     0.35170   0.50000   0.23782   0.00000  Uiso   1.00
C12    C     0.33910   0.50000   0.26508   0.00000  Uiso   1.00
H4     H     0.38946   0.50000   0.27582   0.00000  Uiso   1.00
H5     H     0.41251   0.50000   0.22663   0.00000  Uiso   1.00
H6     H     0.34026   0.50000   0.22725   0.00000  Uiso   1.00
H7     H     0.31777   0.50000   0.27624   0.00000  Uiso   1.00
C13    C     0.27186   0.50000   0.36525   0.00000  Uiso   1.00
C14    C     0.25632   0.50000   0.35331   0.00000  Uiso   1.00
C15    C     0.22997   0.50000   0.36741   0.00000  Uiso   1.00
C16    C     0.21732   0.50000   0.39450   0.00000  Uiso   1.00
C17    C     0.23190   0.50000   0.40707   0.00000  Uiso   1.00
C18    C     0.25819   0.50000   0.39282   0.00000  Uiso   1.00
H8     H     0.26625   0.50000   0.33128   0.00000  Uiso   1.00
H9     H     0.21858   0.50000   0.35679   0.00000  Uiso   1.00
H10    H     0.22240   0.50000   0.42907   0.00000  Uiso   1.00
H11    H     0.26971   0.50000   0.40329   0.00000  Uiso   1.00
C19    C     0.35593   0.50000   0.36275   0.00000  Uiso   1.00
C20    C     0.38270   0.50000   0.34916   0.00000  Uiso   1.00
C21    C     0.39744   0.50000   0.36147   0.00000  Uiso   1.00
C22    C     0.38628   0.50000   0.38860   0.00000  Uiso   1.00
C23    C     0.36003   0.50000   0.40273   0.00000  Uiso   1.00
C24    C     0.34539   0.50000   0.39020   0.00000  Uiso   1.00
H12    H     0.39203   0.50000   0.32716   0.00000  Uiso   1.00
H13    H     0.41872   0.50000   0.34947   0.00000  Uiso   1.00
H14    H     0.35015   0.50000   0.42475   0.00000  Uiso   1.00
H15    H     0.32409   0.50000   0.40208   0.00000  Uiso   1.00
C25    C     0.14919   0.50000   0.44180   0.00000  Uiso   1.00
C26    C     0.13290   0.50000   0.46868   0.00000  Uiso   1.00
C27    C     0.10680   0.50000   0.47873   0.00000  Uiso   1.00
C28    C     0.09516   0.50000   0.46283   0.00000  Uiso   1.00
C29    C     0.11221   0.50000   0.43573   0.00000  Uiso   1.00
C30    C     0.13838   0.50000   0.42548   0.00000  Uiso   1.00
H16    H     0.14116   0.50000   0.48233   0.00000  Uiso   1.00
H17    H     0.09389   0.50000   0.50052   0.00000  Uiso   1.00
H18    H     0.10479   0.50000   0.42136   0.00000  Uiso   1.00
H19    H     0.15116   0.50000   0.40366   0.00000  Uiso   1.00
N1     N     0.06839   0.50000   0.47340   0.00000  Uiso   1.00
C31    C     0.05661   0.50000   0.45774   0.00000  Uiso   1.00
C32    C     0.03045   0.50000   0.46807   0.00000  Uiso   1.00
C33    C     0.01336   0.50000   0.49498   0.00000  Uiso   1.00
C34    C     0.02511   0.50000   0.51073   0.00000  Uiso   1.00
C35    C     0.05131   0.50000   0.50039   0.00000  Uiso   1.00
H20    H     0.06934   0.50000   0.43591   0.00000  Uiso   1.00
H21    H     0.02198   0.50000   0.45460   0.00000  Uiso   1.00
H22    H     0.01323   0.50000   0.53268   0.00000  Uiso   1.00
H23    H     0.05978   0.50000   0.51386   0.00000  Uiso   1.00
C36    C     0.17527   0.50000   0.43213   0.00000  Uiso   1.00
N2     N     0.19195   0.50000   0.40658   0.00000  Uiso   1.00
H24    H     0.18215   0.50000   0.44694   0.00000  Uiso   1.00
C37    C     0.56545   0.50000   0.58982   0.00000  Uiso   1.00
C38    C     0.53920   0.50000   0.60040   0.00000  Uiso   1.00
C39    C     0.52805   0.50000   0.58443   0.00000  Uiso   1.00
C40    C     0.54211   0.50000   0.55690   0.00000  Uiso   1.00
C41    C     0.56859   0.50000   0.54680   0.00000  Uiso   1.00
C42    C     0.57998   0.50000   0.56264   0.00000  Uiso   1.00
H25    H     0.52698   0.50000   0.62231   0.00000  Uiso   1.00
H26    H     0.50679   0.50000   0.59339   0.00000  Uiso   1.00
H27    H     0.58157   0.50000   0.52502   0.00000  Uiso   1.00
H28    H     0.60125   0.50000   0.55351   0.00000  Uiso   1.00
N3     N     0.53039   0.50000   0.54079   0.00000  Uiso   1.00
C43    C     0.54406   0.50000   0.51333   0.00000  Uiso   1.00
C44    C     0.53248   0.50000   0.49766   0.00000  Uiso   1.00
C45    C     0.50603   0.50000   0.50789   0.00000  Uiso   1.00
C46    C     0.49242   0.50000   0.53532   0.00000  Uiso   1.00
C47    C     0.50399   0.50000   0.55092   0.00000  Uiso   1.00
H29    H     0.56535   0.50000   0.50404   0.00000  Uiso   1.00
H30    H     0.54442   0.50000   0.47572   0.00000  Uiso   1.00
H31    H     0.47108   0.50000   0.54570   0.00000  Uiso   1.00
H32    H     0.49208   0.50000   0.57287   0.00000  Uiso   1.00
C48    C     0.57596   0.50000   0.60645   0.00000  Uiso   1.00
N4     N     0.60094   0.50000   0.59791   0.00000  Uiso   1.00
H33    H     0.56228   0.50000   0.62808   0.00000  Uiso   1.00
C49    C     0.40270   0.50000   0.15228   0.00000  Uiso   1.00
C50    C     0.39453   0.50000   0.13368   0.00000  Uiso   1.00
C51    C     0.41174   0.50000   0.10708   0.00000  Uiso   1.00
C52    C     0.43818   0.50000   0.09710   0.00000  Uiso   1.00
C53    C     0.44586   0.50000   0.11638   0.00000  Uiso   1.00
C54    C     0.42876   0.50000   0.14307   0.00000  Uiso   1.00
H34    H     0.37357   0.50000   0.14054   0.00000  Uiso   1.00
H35    H     0.40472   0.50000   0.09238   0.00000  Uiso   1.00
H36    H     0.46663   0.50000   0.11044   0.00000  Uiso   1.00
H37    H     0.43592   0.50000   0.15766   0.00000  Uiso   1.00
N5     N     0.45554   0.50000   0.06977   0.00000  Uiso   1.00
C55    C     0.48193   0.50000   0.05958   0.00000  Uiso   1.00
C56    C     0.49897   0.50000   0.03289   0.00000  Uiso   1.00
C57    C     0.49133   0.50000   0.01365   0.00000  Uiso   1.00
C58    C     0.46495   0.50000   0.02379   0.00000  Uiso   1.00
C59    C     0.44794   0.50000   0.05048   0.00000  Uiso   1.00
H38    H     0.48913   0.50000   0.07413   0.00000  Uiso   1.00
H39    H     0.51997   0.50000   0.02583   0.00000  Uiso   1.00
H40    H     0.45670   0.50000   0.01013   0.00000  Uiso   1.00
H41    H     0.42694   0.50000   0.05755   0.00000  Uiso   1.00
C60    C     0.38511   0.50000   0.17889   0.00000  Uiso   1.00
N6     N     0.39198   0.50000   0.19750   0.00000  Uiso   1.00
H42    H     0.36444   0.50000   0.18446   0.00000  Uiso   1.00
Cl1    Cl    0.70645   0.32594   0.41016   0.00000  Uiso   1.00
Cl2    Cl    0.52654   0.61680   0.12005   0.00000  Uiso   1.00
Cl3    Cl    0.09658   0.48744   0.35353   0.00000  Uiso   1.00
C61    C     0.65907   0.50000   0.65015   0.00000  Uiso   1.00
C62    C     0.68568   0.50000   0.63702   0.00000  Uiso   1.00
C63    C     0.70106   0.50000   0.64905   0.00000  Uiso   1.00
C64    C     0.68753   0.50000   0.67654   0.00000  Uiso   1.00
C65    C     0.66108   0.50000   0.69197   0.00000  Uiso   1.00
C66    C     0.64816   0.50000   0.67746   0.00000  Uiso   1.00
H43    H     0.69463   0.50000   0.61505   0.00000  Uiso   1.00
H44    H     0.69803   0.50000   0.68808   0.00000  Uiso   1.00
H45    H     0.62683   0.50000   0.68782   0.00000  Uiso   1.00
C67    C     0.64823   0.50000   0.71995   0.00000  Uiso   1.00
C68    C     0.62155   0.50000   0.73518   0.00000  Uiso   1.00
C69    C     0.60883   0.50000   0.76235   0.00000  Uiso   1.00
C70    C     0.62195   0.50000   0.77634   0.00000  Uiso   1.00
C71    C     0.64830   0.50000   0.76218   0.00000  Uiso   1.00
C72    C     0.66090   0.50000   0.73492   0.00000  Uiso   1.00
H46    H     0.61054   0.50000   0.72418   0.00000  Uiso   1.00
H47    H     0.58749   0.50000   0.77337   0.00000  Uiso   1.00
H48    H     0.65974   0.50000   0.77275   0.00000  Uiso   1.00
H49    H     0.68223   0.50000   0.72376   0.00000  Uiso   1.00
C73    C     0.72814   0.50000   0.63475   0.00000  Uiso   1.00
C74    C     0.74368   0.50000   0.64669   0.00000  Uiso   1.00
C75    C     0.77003   0.50000   0.63259   0.00000  Uiso   1.00
C76    C     0.78268   0.50000   0.60550   0.00000  Uiso   1.00
C77    C     0.76810   0.50000   0.59293   0.00000  Uiso   1.00
C78    C     0.74181   0.50000   0.60718   0.00000  Uiso   1.00
H50    H     0.73375   0.50000   0.66872   0.00000  Uiso   1.00
H51    H     0.78142   0.50000   0.64321   0.00000  Uiso   1.00
H52    H     0.77760   0.50000   0.57093   0.00000  Uiso   1.00
H53    H     0.73029   0.50000   0.59671   0.00000  Uiso   1.00
C79    C     0.64407   0.50000   0.63725   0.00000  Uiso   1.00
C80    C     0.61730   0.50000   0.65084   0.00000  Uiso   1.00
C81    C     0.60256   0.50000   0.63853   0.00000  Uiso   1.00
C82    C     0.61372   0.50000   0.61140   0.00000  Uiso   1.00
C83    C     0.63997   0.50000   0.59727   0.00000  Uiso   1.00
C84    C     0.65461   0.50000   0.60980   0.00000  Uiso   1.00
H54    H     0.60797   0.50000   0.67284   0.00000  Uiso   1.00
H55    H     0.58128   0.50000   0.65053   0.00000  Uiso   1.00
H56    H     0.64985   0.50000   0.57525   0.00000  Uiso   1.00
H57    H     0.67591   0.50000   0.59792   0.00000  Uiso   1.00
C85    C     0.85081   0.50000   0.55820   0.00000  Uiso   1.00
C86    C     0.86710   0.50000   0.53132   0.00000  Uiso   1.00
C87    C     0.89320   0.50000   0.52127   0.00000  Uiso   1.00
C88    C     0.90484   0.50000   0.53717   0.00000  Uiso   1.00
C89    C     0.88779   0.50000   0.56427   0.00000  Uiso   1.00
C90    C     0.86162   0.50000   0.57452   0.00000  Uiso   1.00
H58    H     0.85884   0.50000   0.51767   0.00000  Uiso   1.00
H59    H     0.90611   0.50000   0.49948   0.00000  Uiso   1.00
H60    H     0.89521   0.50000   0.57864   0.00000  Uiso   1.00
H61    H     0.84884   0.50000   0.59634   0.00000  Uiso   1.00
N7     N     0.93161   0.50000   0.52660   0.00000  Uiso   1.00
C91    C     0.94339   0.50000   0.54226   0.00000  Uiso   1.00
C92    C     0.96955   0.50000   0.53193   0.00000  Uiso   1.00
C93    C     0.98664   0.50000   0.50502   0.00000  Uiso   1.00
C94    C     0.97489   0.50000   0.48927   0.00000  Uiso   1.00
C95    C     0.94869   0.50000   0.49961   0.00000  Uiso   1.00
H62    H     0.93066   0.50000   0.56409   0.00000  Uiso   1.00
H63    H     0.97802   0.50000   0.54540   0.00000  Uiso   1.00
H64    H     0.98677   0.50000   0.46732   0.00000  Uiso   1.00
H65    H     0.94022   0.50000   0.48614   0.00000  Uiso   1.00
C96    C     0.82473   0.50000   0.56787   0.00000  Uiso   1.00
N8     N     0.80805   0.50000   0.59342   0.00000  Uiso   1.00
H66    H     0.81785   0.50000   0.55306   0.00000  Uiso   1.00
C97    C     0.43455   0.50000   0.41018   0.00000  Uiso   1.00
C98    C     0.46080   0.50000   0.39960   0.00000  Uiso   1.00
C99    C     0.47195   0.50000   0.41557   0.00000  Uiso   1.00
C100   C     0.45789   0.50000   0.44310   0.00000  Uiso   1.00
C101   C     0.43141   0.50000   0.45320   0.00000  Uiso   1.00
C102   C     0.42003   0.50000   0.43736   0.00000  Uiso   1.00
H67    H     0.47302   0.50000   0.37769   0.00000  Uiso   1.00
H68    H     0.49321   0.50000   0.40661   0.00000  Uiso   1.00
H69    H     0.41843   0.50000   0.47498   0.00000  Uiso   1.00
H70    H     0.39875   0.50000   0.44649   0.00000  Uiso   1.00
N9     N     0.46961   0.50000   0.45921   0.00000  Uiso   1.00
C103   C     0.45594   0.50000   0.48667   0.00000  Uiso   1.00
C104   C     0.46752   0.50000   0.50234   0.00000  Uiso   1.00
C105   C     0.49397   0.50000   0.49211   0.00000  Uiso   1.00
C106   C     0.50758   0.50000   0.46468   0.00000  Uiso   1.00
C107   C     0.49601   0.50000   0.44908   0.00000  Uiso   1.00
H71    H     0.43465   0.50000   0.49596   0.00000  Uiso   1.00
H72    H     0.45558   0.50000   0.52428   0.00000  Uiso   1.00
H73    H     0.52892   0.50000   0.45430   0.00000  Uiso   1.00
H74    H     0.50792   0.50000   0.42713   0.00000  Uiso   1.00
C108   C     0.42404   0.50000   0.39355   0.00000  Uiso   1.00
N10    N     0.39906   0.50000   0.40209   0.00000  Uiso   1.00
H75    H     0.43772   0.50000   0.37192   0.00000  Uiso   1.00
C109   C     0.59730   0.50000   0.84772   0.00000  Uiso   1.00
C110   C     0.60547   0.50000   0.86632   0.00000  Uiso   1.00
C111   C     0.58826   0.50000   0.89292   0.00000  Uiso   1.00
C112   C     0.56182   0.50000   0.90290   0.00000  Uiso   1.00
C113   C     0.55414   0.50000   0.88362   0.00000  Uiso   1.00
C114   C     0.57124   0.50000   0.85693   0.00000  Uiso   1.00
H76    H     0.62643   0.50000   0.85946   0.00000  Uiso   1.00
H77    H     0.59528   0.50000   0.90762   0.00000  Uiso   1.00
H78    H     0.53337   0.50000   0.88956   0.00000  Uiso   1.00
H79    H     0.56408   0.50000   0.84234   0.00000  Uiso   1.00
N11    N     0.54446   0.50000   0.93023   0.00000  Uiso   1.00
C115   C     0.51807   0.50000   0.94042   0.00000  Uiso   1.00
C116   C     0.50103   0.50000   0.96711   0.00000  Uiso   1.00
C117   C     0.50867   0.50000   0.98635   0.00000  Uiso   1.00
C118   C     0.53505   0.50000   0.97621   0.00000  Uiso   1.00
C119   C     0.55206   0.50000   0.94952   0.00000  Uiso   1.00
H80    H     0.51087   0.50000   0.92587   0.00000  Uiso   1.00
H81    H     0.48003   0.50000   0.97417   0.00000  Uiso   1.00
H82    H     0.54330   0.50000   0.98987   0.00000  Uiso   1.00
H83    H     0.57306   0.50000   0.94245   0.00000  Uiso   1.00
C120   C     0.61489   0.50000   0.82111   0.00000  Uiso   1.00
N12    N     0.60802   0.50000   0.80250   0.00000  Uiso   1.00
H84    H     0.63557   0.50000   0.81554   0.00000  Uiso   1.00
Cl4    Cl    0.29355   0.67406   0.58984   0.00000  Uiso   1.00
Cl5    Cl    0.47346   0.38321   0.87995   0.00000  Uiso   1.00
Cl6    Cl    0.90342   0.51256   0.64647   0.00000  Uiso   1.00
loop_
_geom_bond_atom_site_label_1
_geom_bond_atom_site_label_2
_geom_bond_distance
_geom_bond_site_symmetry_2
_ccdc_geom_bond_type
C1     C6      1.418   .     S
C1     C2      1.422   .     S
C1     C19     1.448   .     S
C2     H1      1.140   .     S
C2     C3      1.426   .     S
C3     C4      1.423   .     S
C3     C13     1.447   .     S
C4     C5      1.419   .     S
C4     H2      1.140   .     S
C5     C6      1.418   .     S
C5     C7      1.448   .     S
C6     H3      1.140   .     S
C7     C12     1.430   .     S
C7     C8      1.429   .     S
C8     H4      1.140   .     S
C8     C9      1.406   .     S
C9     H5      1.140   .     S
C9     C10     1.403   .     S
C10    C11     1.409   .     S
C10    N6      1.357   .     S
C11    H6      1.140   .     S
C11    C12     1.411   .     S
C12    H7      1.140   .     S
C13    C14     1.431   .     S
C13    C18     1.427   .     S
C14    C15     1.409   .     S
C14    H8      1.140   .     S
C15    C16     1.402   .     S
C15    H9      1.140   .     S
C16    N2      1.356   .     S
C16    C17     1.408   .     S
C17    H10     1.140   .     S
C17    C18     1.406   .     S
C18    H11     1.140   .     S
C19    C24     1.428   .     S
C19    C20     1.430   .     S
C20    H12     1.140   .     S
C20    C21     1.405   .     S
C21    C22     1.407   .     S
C21    H13     1.140   .     S
C22    N10     1.359   .     S
C22    C23     1.404   .     S
C23    H14     1.140   .     S
C23    C24     1.410   .     S
C24    H15     1.140   .     S
C25    C26     1.409   .     S
C25    C30     1.408   .     S
C25    C36     1.407   .     S
C26    H16     1.140   .     S
C26    C27     1.406   .     S
C27    C28     1.426   .     S
C27    H17     1.140   .     S
C28    N1      1.440   .     S
C28    C29     1.427   .     S
C29    H18     1.140   .     S
C29    C30     1.408   .     S
C30    H19     1.140   .     S
N1     C31     1.420   .     S
N1     C35     1.423   .     S
C31    C32     1.407   .     S
C31    H20     1.140   .     S
C32    H21     1.140   .     S
C32    C33     1.419   .     S
C33    C34     1.424   .     S
C34    C35     1.409   .     S
C34    H22     1.140   .     S
C35    H23     1.140   .     S
C36    N2      1.353   .     S
C36    H24     1.140   .     S
C37    C38     1.410   .     S
C37    C48     1.411   .     S
C37    C42     1.411   .     S
C38    C39     1.407   .     S
C38    H25     1.140   .     S
C39    H26     1.140   .     S
C39    C40     1.426   .     S
C40    N3      1.442   .     S
C40    C41     1.427   .     S
C41    C42     1.410   .     S
C41    H27     1.140   .     S
C42    H28     1.140   .     S
N3     C47     1.422   .     S
N3     C43     1.422   .     S
C43    H29     1.140   .     S
C43    C44     1.411   .     S
C44    C45     1.424   .     S
C44    H30     1.140   .     S
C45    C105    1.442   .     S
C45    C46     1.420   .     S
C46    H31     1.140   .     S
C46    C47     1.408   .     S
C47    H32     1.140   .     S
C48    N4      1.355   .     S
C48    H33     1.140   .     S
N4     C82     1.359   .     S
C49    C50     1.410   .     S
C49    C54     1.410   .     S
C49    C60     1.412   .     S
C50    H34     1.140   .     S
C50    C51     1.407   .     S
C51    C52     1.425   .     S
C51    H35     1.140   .     S
C52    C53     1.428   .     S
C52    N5      1.441   .     S
C53    H36     1.140   .     S
C53    C54     1.409   .     S
C54    H37     1.140   .     S
N5     C55     1.421   .     S
N5     C59     1.424   .     S
C55    H38     1.140   .     S
C55    C56     1.409   .     S
C56    C57     1.423   .     S
C56    H39     1.140   .     S
C57    C58     1.420   .     S
C58    H40     1.140   .     S
C58    C59     1.408   .     S
C59    H41     1.140   .     S
C60    N6      1.354   .     S
C60    H42     1.140   .     S
C61    C79     1.448   .     S
C61    C62     1.422   .     S
C61    C66     1.418   .     S
C62    C63     1.426   .     S
C62    H43     1.140   .     S
C63    C73     1.447   .     S
C63    C64     1.423   .     S
C64    C65     1.419   .     S
C64    H44     1.140   .     S
C65    C66     1.418   .     S
C65    C67     1.448   .     S
C66    H45     1.140   .     S
C67    C72     1.430   .     S
C67    C68     1.429   .     S
C68    H46     1.140   .     S
C68    C69     1.406   .     S
C69    H47     1.140   .     S
C69    C70     1.403   .     S
C70    C71     1.409   .     S
C70    N12     1.357   .     S
C71    H48     1.140   .     S
C71    C72     1.411   .     S
C72    H49     1.140   .     S
C73    C74     1.431   .     S
C73    C78     1.427   .     S
C74    C75     1.409   .     S
C74    H50     1.140   .     S
C75    H51     1.140   .     S
C75    C76     1.402   .     S
C76    C77     1.408   .     S
C76    N8      1.356   .     S
C77    C78     1.406   .     S
C77    H52     1.140   .     S
C78    H53     1.140   .     S
C79    C80     1.430   .     S
C79    C84     1.428   .     S
C80    C81     1.405   .     S
C80    H54     1.140   .     S
C81    H55     1.140   .     S
C81    C82     1.407   .     S
C82    C83     1.404   .     S
C83    H56     1.140   .     S
C83    C84     1.410   .     S
C84    H57     1.140   .     S
C85    C86     1.409   .     S
C85    C96     1.407   .     S
C85    C90     1.408   .     S
C86    H58     1.140   .     S
C86    C87     1.406   .     S
C87    H59     1.140   .     S
C87    C88     1.426   .     S
C88    C89     1.427   .     S
C88    N7      1.440   .     S
C89    C90     1.408   .     S
C89    H60     1.140   .     S
C90    H61     1.140   .     S
N7     C95     1.423   .     S
N7     C91     1.420   .     S
C91    C92     1.407   .     S
C91    H62     1.140   .     S
C92    H63     1.140   .     S
C92    C93     1.419   .     S
C93    C94     1.424   .     S
C94    C95     1.409   .     S
C94    H64     1.140   .     S
C95    H65     1.140   .     S
C96    H66     1.140   .     S
C96    N8      1.353   .     S
C97    C102    1.411   .     S
C97    C98     1.410   .     S
C97    C108    1.411   .     S
C98    C99     1.407   .     S
C98    H67     1.140   .     S
C99    H68     1.140   .     S
C99    C100    1.426   .     S
C100   C101    1.427   .     S
C100   N9      1.442   .     S
C101   H69     1.140   .     S
C101   C102    1.410   .     S
C102   H70     1.140   .     S
N9     C107    1.422   .     S
N9     C103    1.422   .     S
C103   C104    1.411   .     S
C103   H71     1.140   .     S
C104   H72     1.140   .     S
C104   C105    1.424   .     S
C105   C106    1.420   .     S
C106   H73     1.140   .     S
C106   C107    1.408   .     S
C107   H74     1.140   .     S
C108   H75     1.140   .     S
C108   N10     1.355   .     S
C109   C114    1.410   .     S
C109   C110    1.410   .     S
C109   C120    1.412   .     S
C110   H76     1.140   .     S
C110   C111    1.407   .     S
C111   C112    1.425   .     S
C111   H77     1.140   .     S
C112   C113    1.428   .     S
C112   N11     1.441   .     S
C113   H78     1.140   .     S
C113   C114    1.409   .     S
C114   H79     1.140   .     S
N11    C119    1.424   .     S
N11    C115    1.421   .     S
C115   C116    1.409   .     S
C115   H80     1.140   .     S
C116   H81     1.140   .     S
C116   C117    1.423   .     S
C117   C118    1.420   .     S
C118   H82     1.140   .     S
C118   C119    1.408   .     S
C119   H83     1.140   .     S
C120   N12     1.354   .     S
C120   H84     1.140   .     S
