data_Pc-PBBA-COF
_audit_creation_date              2016-12-13
_audit_creation_method            'Materials Studio'
_symmetry_space_group_name_H-M    'P1'
_symmetry_Int_Tables_number       1
_symmetry_cell_setting            triclinic
loop_
_symmetry_equiv_pos_as_xyz
  x,y,z
_cell_length_a                    22.8500
_cell_length_b                    22.8500
_cell_length_c                    3.3400
_cell_angle_alpha                 90.0000
_cell_angle_beta                  90.0000
_cell_angle_gamma                 90.0000
loop_
_atom_site_label
_atom_site_type_symbol
_atom_site_fract_x
_atom_site_fract_y
_atom_site_fract_z
_atom_site_U_iso_or_equiv
_atom_site_adp_type
_atom_site_occupancy
C1     C     0.44785   0.03038   0.50000   0.00000  Uiso   1.00
C2     C     0.53088   0.21733   0.50000   0.00000  Uiso   1.00
C3     C     0.43790   0.26903   0.50000   0.00000  Uiso   1.00
C4     C     0.47061   0.32026   0.50000   0.00000  Uiso   1.00
C5     C     0.44691   0.37754   0.50000   0.00000  Uiso   1.00
O1     O     0.44691   0.16191   0.50000   0.00000  Uiso   1.00
H1     H     0.40630   0.05326   0.50000   0.00000  Uiso   1.00
H2     H     0.39053   0.26933   0.50000   0.00000  Uiso   1.00
C6     C     0.96964   0.44787   0.50000   0.00000  Uiso   1.00
C7     C     0.78269   0.53090   0.50000   0.00000  Uiso   1.00
C8     C     0.73099   0.43792   0.50000   0.00000  Uiso   1.00
C9     C     0.67976   0.47063   0.50000   0.00000  Uiso   1.00
C10    C     0.62248   0.44693   0.50000   0.00000  Uiso   1.00
O2     O     0.83811   0.44693   0.50000   0.00000  Uiso   1.00
H3     H     0.94677   0.40632   0.50000   0.00000  Uiso   1.00
H4     H     0.73069   0.39056   0.50000   0.00000  Uiso   1.00
N1     N     0.39484   0.39486   0.50000   0.00000  Uiso   1.00
C11    C     0.55215   0.96966   0.50000   0.00000  Uiso   1.00
C12    C     0.46912   0.78271   0.50000   0.00000  Uiso   1.00
C13    C     0.56210   0.73101   0.50000   0.00000  Uiso   1.00
C14    C     0.52939   0.67978   0.50000   0.00000  Uiso   1.00
C15    C     0.55309   0.62250   0.50000   0.00000  Uiso   1.00
O3     O     0.55309   0.83813   0.50000   0.00000  Uiso   1.00
H5     H     0.59370   0.94679   0.50000   0.00000  Uiso   1.00
H6     H     0.60947   0.73071   0.50000   0.00000  Uiso   1.00
C16    C     0.03036   0.55217   0.50000   0.00000  Uiso   1.00
C17    C     0.21731   0.46914   0.50000   0.00000  Uiso   1.00
C18    C     0.26901   0.56212   0.50000   0.00000  Uiso   1.00
C19    C     0.32024   0.52941   0.50000   0.00000  Uiso   1.00
C20    C     0.37752   0.55311   0.50000   0.00000  Uiso   1.00
O4     O     0.16189   0.55311   0.50000   0.00000  Uiso   1.00
H7     H     0.05323   0.59372   0.50000   0.00000  Uiso   1.00
H8     H     0.26931   0.60949   0.50000   0.00000  Uiso   1.00
N2     N     0.60516   0.60518   0.50000   0.00000  Uiso   1.00
C21    C     0.55215   0.03038   0.50000   0.00000  Uiso   1.00
C22    C     0.46912   0.21733   0.50000   0.00000  Uiso   1.00
C23    C     0.56210   0.26903   0.50000   0.00000  Uiso   1.00
C24    C     0.52939   0.32026   0.50000   0.00000  Uiso   1.00
C25    C     0.55309   0.37754   0.50000   0.00000  Uiso   1.00
O5     O     0.55309   0.16191   0.50000   0.00000  Uiso   1.00
H9     H     0.59370   0.05326   0.50000   0.00000  Uiso   1.00
H10    H     0.60947   0.26933   0.50000   0.00000  Uiso   1.00
C26    C     0.03036   0.44787   0.50000   0.00000  Uiso   1.00
C27    C     0.21731   0.53090   0.50000   0.00000  Uiso   1.00
C28    C     0.26901   0.43792   0.50000   0.00000  Uiso   1.00
C29    C     0.32024   0.47063   0.50000   0.00000  Uiso   1.00
C30    C     0.37752   0.44693   0.50000   0.00000  Uiso   1.00
O6     O     0.16189   0.44693   0.50000   0.00000  Uiso   1.00
H11    H     0.05323   0.40632   0.50000   0.00000  Uiso   1.00
H12    H     0.26931   0.39056   0.50000   0.00000  Uiso   1.00
N3     N     0.60516   0.39486   0.50000   0.00000  Uiso   1.00
C31    C     0.44785   0.96966   0.50000   0.00000  Uiso   1.00
C32    C     0.53088   0.78271   0.50000   0.00000  Uiso   1.00
C33    C     0.43790   0.73101   0.50000   0.00000  Uiso   1.00
C34    C     0.47061   0.67978   0.50000   0.00000  Uiso   1.00
C35    C     0.44691   0.62250   0.50000   0.00000  Uiso   1.00
O7     O     0.44691   0.83813   0.50000   0.00000  Uiso   1.00
H13    H     0.40630   0.94679   0.50000   0.00000  Uiso   1.00
H14    H     0.39053   0.73071   0.50000   0.00000  Uiso   1.00
C36    C     0.96964   0.55217   0.50000   0.00000  Uiso   1.00
C37    C     0.78269   0.46914   0.50000   0.00000  Uiso   1.00
C38    C     0.73099   0.56212   0.50000   0.00000  Uiso   1.00
C39    C     0.67976   0.52941   0.50000   0.00000  Uiso   1.00
C40    C     0.62248   0.55311   0.50000   0.00000  Uiso   1.00
O8     O     0.83811   0.55311   0.50000   0.00000  Uiso   1.00
H15    H     0.94677   0.59372   0.50000   0.00000  Uiso   1.00
H16    H     0.73069   0.60949   0.50000   0.00000  Uiso   1.00
N4     N     0.39484   0.60518   0.50000   0.00000  Uiso   1.00
C41    C     0.50000   0.06044   0.50000   0.00000  Uiso   1.00
B1     B     0.50000   0.12752   0.50000   0.00000  Uiso   1.00
N5     N     0.50000   0.41345   0.50000   0.00000  Uiso   1.00
C42    C     0.50000   0.93960   0.50000   0.00000  Uiso   1.00
B2     B     0.50000   0.87252   0.50000   0.00000  Uiso   1.00
N6     N     0.50000   0.58659   0.50000   0.00000  Uiso   1.00
C43    C     0.93958   0.50002   0.50000   0.00000  Uiso   1.00
B3     B     0.87250   0.50002   0.50000   0.00000  Uiso   1.00
N7     N     0.58657   0.50002   0.50000   0.00000  Uiso   1.00
H17    H     0.45708   0.50002   0.50000   0.00000  Uiso   1.00
C44    C     0.06042   0.50002   0.50000   0.00000  Uiso   1.00
B4     B     0.12750   0.50002   0.50000   0.00000  Uiso   1.00
N8     N     0.41343   0.50002   0.50000   0.00000  Uiso   1.00
H18    H     0.54292   0.50002   0.50000   0.00000  Uiso   1.00
loop_
_geom_bond_atom_site_label_1
_geom_bond_atom_site_label_2
_geom_bond_distance
_geom_bond_site_symmetry_2
_ccdc_geom_bond_type
C1     H1      1.084   .     S
C1     C41     1.375   .     S
C2     C22     1.411   .     S
C2     O5      1.364   .     S
C2     C23     1.380   .     S
C3     H2      1.082   .     S
C3     C4      1.389   .     S
C3     C22     1.380   .     S
C4     C24     1.343   .     S
C4     C5      1.416   .     S
C5     N1      1.254   .     S
C5     N5      1.465   .     S
O1     C22     1.364   .     S
O1     B1      1.445   .     S
C6     H3      1.084   .     S
C6     C43     1.375   .     S
C7     C37     1.411   .     S
C7     O8      1.364   .     S
C7     C38     1.380   .     S
C8     H4      1.082   .     S
C8     C9      1.389   .     S
C8     C37     1.380   .     S
C9     C39     1.343   .     S
C9     C10     1.416   .     S
C10    N3      1.254   .     S
C10    N7      1.465   .     S
O2     C37     1.364   .     S
O2     B3      1.445   .     S
N1     C30     1.254   .     S
C11    H5      1.084   .     S
C11    C42     1.375   .     S
C12    C32     1.411   .     S
C12    O7      1.364   .     S
C12    C33     1.380   .     S
C13    H6      1.082   .     S
C13    C32     1.380   .     S
C13    C14     1.389   .     S
C14    C34     1.343   .     S
C14    C15     1.416   .     S
C15    N2      1.254   .     S
C15    N6      1.465   .     S
O3     C32     1.364   .     S
O3     B2      1.445   .     S
C16    H7      1.084   .     S
C16    C44     1.375   .     S
C17    C27     1.411   .     S
C17    O6      1.364   .     S
C17    C28     1.380   .     S
C18    H8      1.082   .     S
C18    C27     1.380   .     S
C18    C19     1.389   .     S
C19    C29     1.343   .     S
C19    C20     1.416   .     S
C20    N4      1.254   .     S
C20    N8      1.465   .     S
O4     C27     1.364   .     S
O4     B4      1.445   .     S
N2     C40     1.254   .     S
C21    H9      1.084   .     S
C21    C41     1.375   .     S
C23    H10     1.082   .     S
C23    C24     1.389   .     S
C24    C25     1.416   .     S
C25    N3      1.254   .     S
C25    N5      1.465   .     S
O5     B1      1.445   .     S
C26    H11     1.084   .     S
C26    C44     1.375   .     S
C28    H12     1.082   .     S
C28    C29     1.389   .     S
C29    C30     1.416   .     S
C30    N8      1.465   .     S
O6     B4      1.445   .     S
C31    H13     1.084   .     S
C31    C42     1.375   .     S
C33    H14     1.082   .     S
C33    C34     1.389   .     S
C34    C35     1.416   .     S
C35    N4      1.254   .     S
C35    N6      1.465   .     S
O7     B2      1.445   .     S
C36    H15     1.084   .     S
C36    C43     1.375   .     S
C38    H16     1.082   .     S
C38    C39     1.389   .     S
C39    C40     1.416   .     S
C40    N7      1.465   .     S
O8     B3      1.445   .     S
C41    B1      1.533   .     S
C42    B2      1.533   .     S
C43    B3      1.533   .     S
N7     H18     0.997   .     S
H17    N8      0.997   .     S
C44    B4      1.533   .     S
