data_Ph-An-COF
_audit_creation_date              2016-12-13
_audit_creation_method            'Materials Studio'
_symmetry_space_group_name_H-M    'P1'
_symmetry_Int_Tables_number       1
_symmetry_cell_setting            triclinic
loop_
_symmetry_equiv_pos_as_xyz
  x,y,z
_cell_length_a                    29.1444
_cell_length_b                    29.1444
_cell_length_c                    3.4000
_cell_angle_alpha                 90.0000
_cell_angle_beta                  90.0000
_cell_angle_gamma                 120.0000
loop_
_atom_site_label
_atom_site_type_symbol
_atom_site_fract_x
_atom_site_fract_y
_atom_site_fract_z
_atom_site_U_iso_or_equiv
_atom_site_adp_type
_atom_site_occupancy
C1     C     0.40813   0.40733   1.47060   0.00000  Uiso   1.00
C2     C     0.45407   0.45317   1.47059   0.00000  Uiso   1.00
C3     C     0.59187   0.49919   1.47060   0.00000  Uiso   1.00
C4     C     0.54593   0.49910   1.47059   0.00000  Uiso   1.00
H1     H     0.40638   0.36932   1.47054   0.00000  Uiso   1.00
H2     H     0.59363   0.46295   1.47054   0.00000  Uiso   1.00
O1     O     0.68603   0.55224   1.47059   0.00000  Uiso   1.00
C5     C     0.36335   0.40880   1.47059   0.00000  Uiso   1.00
O2     O     0.31397   0.36621   1.47059   0.00000  Uiso   1.00
C6     C     0.63665   0.54545   1.47059   0.00000  Uiso   1.00
C7     C     0.50000   0.45326   1.47060   0.00000  Uiso   1.00
H3     H     0.49999   0.41594   1.47050   0.00000  Uiso   1.00
O3     O     0.31397   0.44776   1.47058   0.00000  Uiso   1.00
C8     C     0.63665   0.59120   1.47058   0.00000  Uiso   1.00
O4     O     0.68603   0.63379   1.47058   0.00000  Uiso   1.00
C9     C     0.36335   0.45455   1.47058   0.00000  Uiso   1.00
B1     B     0.28411   0.39206   1.47059   0.00000  Uiso   1.00
C10    C     0.50000   0.54674   1.47058   0.00000  Uiso   1.00
H4     H     0.49999   0.58403   1.47081   0.00000  Uiso   1.00
C11    C     0.59187   0.59268   1.47058   0.00000  Uiso   1.00
C12    C     0.54593   0.54684   1.47058   0.00000  Uiso   1.00
C13    C     0.40813   0.50081   1.47058   0.00000  Uiso   1.00
C14    C     0.45407   0.50090   1.47058   0.00000  Uiso   1.00
B2     B     0.71589   0.60795   1.47059   0.00000  Uiso   1.00
H5     H     0.59362   0.63069   1.47074   0.00000  Uiso   1.00
H6     H     0.40638   0.53705   1.47068   0.00000  Uiso   1.00
C15    C     0.99919   0.09187   1.47053   0.00000  Uiso   1.00
C16    C     0.99910   0.04593   1.47053   0.00000  Uiso   1.00
C17    C     0.90733   0.90813   1.47055   0.00000  Uiso   1.00
C18    C     0.95317   0.95407   1.47055   0.00000  Uiso   1.00
H7     H     0.96295   0.09362   1.47047   0.00000  Uiso   1.00
H8     H     0.86932   0.90637   1.47049   0.00000  Uiso   1.00
O5     O     0.86621   0.81397   1.47056   0.00000  Uiso   1.00
C19    C     0.04545   0.13665   1.47052   0.00000  Uiso   1.00
O6     O     0.05224   0.18603   1.47051   0.00000  Uiso   1.00
C20    C     0.90880   0.86335   1.47056   0.00000  Uiso   1.00
C21    C     0.95326   0.00000   1.47054   0.00000  Uiso   1.00
H9     H     0.91596   0.00001   1.47043   0.00000  Uiso   1.00
O7     O     0.13379   0.18603   1.47052   0.00000  Uiso   1.00
C22    C     0.95455   0.86335   1.47056   0.00000  Uiso   1.00
O8     O     0.94776   0.81397   1.47057   0.00000  Uiso   1.00
C23    C     0.09120   0.13665   1.47053   0.00000  Uiso   1.00
B3     B     0.10794   0.21589   1.47051   0.00000  Uiso   1.00
C24    C     0.04674   0.00000   1.47055   0.00000  Uiso   1.00
H10    H     0.08405   0.00001   1.47079   0.00000  Uiso   1.00
C25    C     0.00081   0.90813   1.47056   0.00000  Uiso   1.00
C26    C     0.00090   0.95407   1.47055   0.00000  Uiso   1.00
C27    C     0.09268   0.09187   1.47053   0.00000  Uiso   1.00
C28    C     0.04684   0.04593   1.47054   0.00000  Uiso   1.00
B4     B     0.89206   0.78411   1.47057   0.00000  Uiso   1.00
H11    H     0.03707   0.90638   1.47073   0.00000  Uiso   1.00
H12    H     0.13067   0.09362   1.47064   0.00000  Uiso   1.00
C29    C     0.09267   0.50081   1.47064   0.00000  Uiso   1.00
C30    C     0.04683   0.50090   1.47063   0.00000  Uiso   1.00
C31    C     0.00081   0.59268   1.47061   0.00000  Uiso   1.00
C32    C     0.00090   0.54684   1.47062   0.00000  Uiso   1.00
H13    H     0.13068   0.53706   1.47058   0.00000  Uiso   1.00
H14    H     0.03705   0.63068   1.47055   0.00000  Uiso   1.00
O9     O     0.94776   0.63379   1.47060   0.00000  Uiso   1.00
C33    C     0.09120   0.45455   1.47065   0.00000  Uiso   1.00
O10    O     0.13379   0.44776   1.47065   0.00000  Uiso   1.00
C34    C     0.95455   0.59120   1.47061   0.00000  Uiso   1.00
C35    C     0.04674   0.54674   1.47063   0.00000  Uiso   1.00
H15    H     0.08406   0.58405   1.47052   0.00000  Uiso   1.00
O11    O     0.05224   0.36621   1.47066   0.00000  Uiso   1.00
C36    C     0.90880   0.54545   1.47061   0.00000  Uiso   1.00
O12    O     0.86621   0.55224   1.47061   0.00000  Uiso   1.00
C37    C     0.04545   0.40880   1.47065   0.00000  Uiso   1.00
B5     B     0.10794   0.39206   1.47066   0.00000  Uiso   1.00
C38    C     0.95326   0.45326   1.47063   0.00000  Uiso   1.00
H16    H     0.91597   0.41596   1.47088   0.00000  Uiso   1.00
C39    C     0.90733   0.49919   1.47062   0.00000  Uiso   1.00
C40    C     0.95317   0.49910   1.47063   0.00000  Uiso   1.00
C41    C     0.99919   0.40733   1.47065   0.00000  Uiso   1.00
C42    C     0.99910   0.45317   1.47064   0.00000  Uiso   1.00
B6     B     0.89206   0.60795   1.47060   0.00000  Uiso   1.00
H17    H     0.86931   0.46293   1.47080   0.00000  Uiso   1.00
H18    H     0.96295   0.36933   1.47075   0.00000  Uiso   1.00
C43    C     0.77774   0.63887   1.47059   0.00000  Uiso   1.00
C44    C     0.86113   0.63887   1.47059   0.00000  Uiso   1.00
C45    C     0.86113   0.72227   1.47058   0.00000  Uiso   1.00
C46    C     0.80560   0.61121   1.47059   0.00000  Uiso   1.00
C47    C     0.88879   0.69440   1.47059   0.00000  Uiso   1.00
C48    C     0.80560   0.69440   1.47058   0.00000  Uiso   1.00
H19    H     0.78412   0.71588   1.47057   0.00000  Uiso   1.00
H20    H     0.78412   0.56824   1.47060   0.00000  Uiso   1.00
H21    H     0.93176   0.71588   1.47059   0.00000  Uiso   1.00
C49    C     0.22227   0.36113   1.47059   0.00000  Uiso   1.00
C50    C     0.13887   0.27774   1.47059   0.00000  Uiso   1.00
C51    C     0.13887   0.36113   1.47058   0.00000  Uiso   1.00
C52    C     0.19440   0.30560   1.47059   0.00000  Uiso   1.00
C53    C     0.11121   0.30560   1.47059   0.00000  Uiso   1.00
C54    C     0.19440   0.38879   1.47058   0.00000  Uiso   1.00
H22    H     0.21588   0.43176   1.47057   0.00000  Uiso   1.00
H23    H     0.21588   0.28412   1.47060   0.00000  Uiso   1.00
H24    H     0.06824   0.28412   1.47059   0.00000  Uiso   1.00
loop_
_geom_bond_atom_site_label_1
_geom_bond_atom_site_label_2
_geom_bond_distance
_geom_bond_site_symmetry_2
_ccdc_geom_bond_type
C1     H1      1.083   .     S
C1     C5      1.327   .     S
C1     C2      1.337   .     S
C2     C7      1.337   .     S
C2     C14     1.391   .     S
C3     C6      1.327   .     S
C3     C4      1.337   .     S
C3     H2      1.083   .     S
C4     C12     1.391   .     S
C4     C7      1.337   .     S
O1     C6      1.351   .     S
O1     B2      1.407   .     S
C5     O2      1.351   .     S
C5     C9      1.333   .     S
O2     B1      1.407   .     S
C6     C8      1.333   .     S
C7     H3      1.087   .     S
O3     C9      1.351   .     S
O3     B1      1.407   .     S
C8     C11     1.327   .     S
C8     O4      1.351   .     S
O4     B2      1.407   .     S
C9     C13     1.327   .     S
B1     C49     1.561   .     S
C10    C14     1.337   .     S
C10    C12     1.337   .     S
C10    H4      1.087   .     S
C11    H5      1.083   .     S
C11    C12     1.337   .     S
C13    H6      1.083   .     S
C13    C14     1.337   .     S
B2     C43     1.561   .     S
C15    H7      1.083   .     S
C15    C16     1.337   .     S
C16    C21     1.337   .     S
C17    C20     1.327   .     S
C17    H8      1.083   .     S
C17    C18     1.337   .     S
O5     B4      1.407   .     S
O5     C20     1.351   .     S
C19    C23     1.333   .     S
C19    O6      1.351   .     S
O6     B3      1.407   .     S
C20    C22     1.333   .     S
C21    H9      1.087   .     S
O7     B3      1.407   .     S
O7     C23     1.351   .     S
C22    O8      1.351   .     S
O8     B4      1.407   .     S
C23    C27     1.327   .     S
B3     C50     1.561   .     S
C24    C28     1.337   .     S
C24    H10     1.087   .     S
C25    H11     1.083   .     S
C25    C26     1.337   .     S
C27    H12     1.083   .     S
C27    C28     1.337   .     S
B4     C45     1.561   .     S
C29    H13     1.083   .     S
C29    C30     1.337   .     S
C29    C33     1.327   .     S
C30    C35     1.337   .     S
C31    H14     1.083   .     S
C31    C32     1.337   .     S
C32    C35     1.337   .     S
O9     C34     1.351   .     S
O9     B6      1.407   .     S
C33    O10     1.351   .     S
C33    C37     1.333   .     S
O10    B5      1.407   .     S
C34    C36     1.333   .     S
C35    H15     1.087   .     S
O11    C37     1.351   .     S
O11    B5      1.407   .     S
C36    C39     1.327   .     S
C36    O12     1.351   .     S
O12    B6      1.407   .     S
B5     C51     1.561   .     S
C38    C42     1.337   .     S
C38    C40     1.337   .     S
C38    H16     1.087   .     S
C39    C40     1.337   .     S
C39    H17     1.083   .     S
C41    H18     1.083   .     S
C41    C42     1.337   .     S
B6     C44     1.561   .     S
C43    C48     1.402   .     S
C43    C46     1.402   .     S
C44    C47     1.402   .     S
C44    C46     1.402   .     S
C45    C47     1.402   .     S
C45    C48     1.402   .     S
C46    H20     1.084   .     S
C47    H21     1.084   .     S
C48    H19     1.084   .     S
C49    C54     1.402   .     S
C49    C52     1.402   .     S
C50    C53     1.402   .     S
C50    C52     1.402   .     S
C51    C54     1.402   .     S
C51    C53     1.402   .     S
C52    H23     1.084   .     S
C53    H24     1.084   .     S
C54    H22     1.084   .     S
