data_PI-2-COF
_audit_creation_date              2016-12-13
_audit_creation_method            'Materials Studio'
_symmetry_space_group_name_H-M    'P1'
_symmetry_Int_Tables_number       1
_symmetry_cell_setting            triclinic
loop_
_symmetry_equiv_pos_as_xyz
  x,y,z
_cell_length_a                    30.1402
_cell_length_b                    30.1402
_cell_length_c                    3.4000
_cell_angle_alpha                 90.0000
_cell_angle_beta                  90.0000
_cell_angle_gamma                 60.0000
loop_
_atom_site_label
_atom_site_type_symbol
_atom_site_fract_x
_atom_site_fract_y
_atom_site_fract_z
_atom_site_U_iso_or_equiv
_atom_site_adp_type
_atom_site_occupancy
N1     N     0.38375   0.43181   1.47059   0.00000  Uiso   1.00
C1     C     0.39779   0.38208   1.47059   0.00000  Uiso   1.00
C2     C     0.41698   0.45023   1.47059   0.00000  Uiso   1.00
C3     C     0.46958   0.41781   1.47059   0.00000  Uiso   1.00
C4     C     0.50129   0.43774   1.47059   0.00000  Uiso   1.00
C5     C     0.48241   0.49027   1.47059   0.00000  Uiso   1.00
C6     C     0.42939   0.52224   1.47059   0.00000  Uiso   1.00
C7     C     0.39710   0.50263   1.47059   0.00000  Uiso   1.00
H1     H     0.43804   0.35217   1.47059   0.00000  Uiso   1.00
H2     H     0.48604   0.37612   1.47059   0.00000  Uiso   1.00
H3     H     0.35510   0.52788   1.47059   0.00000  Uiso   1.00
H4     H     0.54281   0.41099   1.47059   0.00000  Uiso   1.00
H5     H     0.41263   0.56395   1.47059   0.00000  Uiso   1.00
N2     N     0.61625   0.56820   1.47059   0.00000  Uiso   1.00
C8     C     0.60221   0.61792   1.47059   0.00000  Uiso   1.00
C9     C     0.58302   0.54977   1.47059   0.00000  Uiso   1.00
C10    C     0.53042   0.58219   1.47059   0.00000  Uiso   1.00
C11    C     0.49871   0.56227   1.47059   0.00000  Uiso   1.00
C12    C     0.51759   0.50973   1.47059   0.00000  Uiso   1.00
C13    C     0.57061   0.47776   1.47059   0.00000  Uiso   1.00
C14    C     0.60290   0.49738   1.47059   0.00000  Uiso   1.00
H6     H     0.56196   0.64783   1.47059   0.00000  Uiso   1.00
H7     H     0.51396   0.62389   1.47059   0.00000  Uiso   1.00
H8     H     0.64490   0.47212   1.47059   0.00000  Uiso   1.00
H9     H     0.45720   0.58901   1.47059   0.00000  Uiso   1.00
H10    H     0.58737   0.43605   1.47059   0.00000  Uiso   1.00
N3     N     0.18444   0.38375   1.47059   0.00000  Uiso   1.00
C15    C     0.22013   0.39779   1.47059   0.00000  Uiso   1.00
C16    C     0.13279   0.41698   1.47059   0.00000  Uiso   1.00
C17    C     0.11261   0.46958   1.47059   0.00000  Uiso   1.00
C18    C     0.06098   0.50129   1.47059   0.00000  Uiso   1.00
C19    C     0.02732   0.48241   1.47059   0.00000  Uiso   1.00
C20    C     0.04837   0.42939   1.47059   0.00000  Uiso   1.00
C21    C     0.10028   0.39710   1.47059   0.00000  Uiso   1.00
H11    H     0.20979   0.43804   1.47059   0.00000  Uiso   1.00
H12    H     0.13785   0.48604   1.47059   0.00000  Uiso   1.00
H13    H     0.11702   0.35510   1.47059   0.00000  Uiso   1.00
H14    H     0.04620   0.54281   1.47059   0.00000  Uiso   1.00
H15    H     0.02342   0.41263   1.47059   0.00000  Uiso   1.00
N4     N     0.81556   0.61625   1.47059   0.00000  Uiso   1.00
C22    C     0.77987   0.60221   1.47059   0.00000  Uiso   1.00
C23    C     0.86722   0.58302   1.47059   0.00000  Uiso   1.00
C24    C     0.88739   0.53042   1.47059   0.00000  Uiso   1.00
C25    C     0.93903   0.49871   1.47059   0.00000  Uiso   1.00
C26    C     0.97268   0.51759   1.47059   0.00000  Uiso   1.00
C27    C     0.95163   0.57061   1.47059   0.00000  Uiso   1.00
C28    C     0.89972   0.60290   1.47059   0.00000  Uiso   1.00
H16    H     0.79021   0.56196   1.47059   0.00000  Uiso   1.00
H17    H     0.86215   0.51396   1.47059   0.00000  Uiso   1.00
H18    H     0.88298   0.64490   1.47059   0.00000  Uiso   1.00
H19    H     0.95380   0.45720   1.47059   0.00000  Uiso   1.00
H20    H     0.97658   0.58737   1.47059   0.00000  Uiso   1.00
N5     N     0.43181   0.18444   1.47059   0.00000  Uiso   1.00
C29    C     0.38208   0.22013   1.47059   0.00000  Uiso   1.00
C30    C     0.45023   0.13279   1.47059   0.00000  Uiso   1.00
C31    C     0.41781   0.11261   1.47059   0.00000  Uiso   1.00
C32    C     0.43774   0.06098   1.47059   0.00000  Uiso   1.00
C33    C     0.49027   0.02732   1.47059   0.00000  Uiso   1.00
C34    C     0.52224   0.04837   1.47059   0.00000  Uiso   1.00
C35    C     0.50263   0.10028   1.47059   0.00000  Uiso   1.00
H21    H     0.35217   0.20979   1.47059   0.00000  Uiso   1.00
H22    H     0.37612   0.13785   1.47059   0.00000  Uiso   1.00
H23    H     0.52788   0.11702   1.47059   0.00000  Uiso   1.00
H24    H     0.41099   0.04620   1.47059   0.00000  Uiso   1.00
H25    H     0.56395   0.02342   1.47059   0.00000  Uiso   1.00
N6     N     0.56820   0.81556   1.47059   0.00000  Uiso   1.00
C36    C     0.61792   0.77987   1.47059   0.00000  Uiso   1.00
C37    C     0.54977   0.86722   1.47059   0.00000  Uiso   1.00
C38    C     0.58219   0.88739   1.47059   0.00000  Uiso   1.00
C39    C     0.56227   0.93903   1.47059   0.00000  Uiso   1.00
C40    C     0.50973   0.97268   1.47059   0.00000  Uiso   1.00
C41    C     0.47776   0.95163   1.47059   0.00000  Uiso   1.00
C42    C     0.49738   0.89972   1.47059   0.00000  Uiso   1.00
H26    H     0.64783   0.79021   1.47059   0.00000  Uiso   1.00
H27    H     0.62389   0.86215   1.47059   0.00000  Uiso   1.00
H28    H     0.47212   0.88298   1.47059   0.00000  Uiso   1.00
H29    H     0.58901   0.95380   1.47059   0.00000  Uiso   1.00
H30    H     0.43605   0.97658   1.47059   0.00000  Uiso   1.00
C43    C     0.63615   0.64359   1.47059   0.00000  Uiso   1.00
C44    C     0.64359   0.72026   1.47059   0.00000  Uiso   1.00
C45    C     0.72026   0.63615   1.47059   0.00000  Uiso   1.00
C46    C     0.61321   0.69711   1.47059   0.00000  Uiso   1.00
C47    C     0.69711   0.68969   1.47059   0.00000  Uiso   1.00
C48    C     0.68969   0.61321   1.47059   0.00000  Uiso   1.00
H31    H     0.70752   0.57180   1.47059   0.00000  Uiso   1.00
H32    H     0.57180   0.72069   1.47059   0.00000  Uiso   1.00
H33    H     0.72069   0.70752   1.47059   0.00000  Uiso   1.00
C49    C     0.36385   0.35641   1.47059   0.00000  Uiso   1.00
C50    C     0.35641   0.27974   1.47059   0.00000  Uiso   1.00
C51    C     0.27974   0.36385   1.47059   0.00000  Uiso   1.00
C52    C     0.38679   0.30290   1.47059   0.00000  Uiso   1.00
C53    C     0.30290   0.31032   1.47059   0.00000  Uiso   1.00
C54    C     0.31032   0.38679   1.47059   0.00000  Uiso   1.00
H34    H     0.29248   0.42821   1.47059   0.00000  Uiso   1.00
H35    H     0.42821   0.27931   1.47059   0.00000  Uiso   1.00
H36    H     0.27931   0.29248   1.47059   0.00000  Uiso   1.00
loop_
_geom_bond_atom_site_label_1
_geom_bond_atom_site_label_2
_geom_bond_distance
_geom_bond_site_symmetry_2
_ccdc_geom_bond_type
N1     C2      1.367   .     S
N1     C1      1.338   .     S
C1     H1      1.091   .     S
C1     C49     1.561   .     S
C2     C3      1.385   .     S
C2     C7      1.381   .     S
C3     C4      1.359   .     S
C3     H2      1.096   .     S
C4     H4      1.099   .     S
C4     C5      1.389   .     S
C5     C6      1.394   .     S
C5     C12     1.446   .     S
C6     C7      1.368   .     S
C6     H5      1.096   .     S
C7     H3      1.104   .     S
N2     C9      1.367   .     S
N2     C8      1.338   .     S
C8     H6      1.091   .     S
C8     C43     1.561   .     S
C9     C10     1.385   .     S
C9     C14     1.381   .     S
C10    C11     1.359   .     S
C10    H7      1.096   .     S
C11    H9      1.099   .     S
C11    C12     1.389   .     S
C12    C13     1.394   .     S
C13    C14     1.368   .     S
C13    H10     1.096   .     S
C14    H8      1.104   .     S
N3     C15     1.338   .     S
N3     C16     1.367   .     S
C15    C51     1.561   .     S
C15    H11     1.091   .     S
C16    C17     1.385   .     S
C16    C21     1.381   .     S
C17    C18     1.359   .     S
C17    H12     1.096   .     S
C18    C19     1.389   .     S
C18    H14     1.099   .     S
C19    C20     1.394   .     S
C20    H15     1.096   .     S
C20    C21     1.368   .     S
C21    H13     1.104   .     S
N4     C23     1.367   .     S
N4     C22     1.338   .     S
C22    H16     1.091   .     S
C22    C45     1.561   .     S
C23    C28     1.381   .     S
C23    C24     1.385   .     S
C24    H17     1.096   .     S
C24    C25     1.359   .     S
C25    C26     1.389   .     S
C25    H19     1.099   .     S
C26    C27     1.394   .     S
C27    H20     1.096   .     S
C27    C28     1.368   .     S
C28    H18     1.104   .     S
N5     C29     1.338   .     S
N5     C30     1.367   .     S
C29    H21     1.091   .     S
C29    C50     1.561   .     S
C30    C31     1.385   .     S
C30    C35     1.381   .     S
C31    H22     1.096   .     S
C31    C32     1.359   .     S
C32    H24     1.099   .     S
C32    C33     1.389   .     S
C33    C34     1.394   .     S
C34    H25     1.096   .     S
C34    C35     1.368   .     S
C35    H23     1.104   .     S
N6     C37     1.367   .     S
N6     C36     1.338   .     S
C36    H26     1.091   .     S
C36    C44     1.561   .     S
C37    C42     1.381   .     S
C37    C38     1.385   .     S
C38    C39     1.359   .     S
C38    H27     1.096   .     S
C39    C40     1.389   .     S
C39    H29     1.099   .     S
C40    C41     1.394   .     S
C41    H30     1.096   .     S
C41    C42     1.368   .     S
C42    H28     1.104   .     S
C43    C48     1.402   .     S
C43    C46     1.402   .     S
C44    C47     1.402   .     S
C44    C46     1.402   .     S
C45    C48     1.402   .     S
C45    C47     1.402   .     S
C46    H32     1.084   .     S
C47    H33     1.084   .     S
C48    H31     1.084   .     S
C49    C54     1.402   .     S
C49    C52     1.402   .     S
C50    C53     1.402   .     S
C50    C52     1.402   .     S
C51    C54     1.402   .     S
C51    C53     1.402   .     S
C52    H35     1.084   .     S
C53    H36     1.084   .     S
C54    H34     1.084   .     S
