data_PI-3_COF
_audit_creation_date              2016-12-13
_audit_creation_method            'Materials Studio'
_symmetry_space_group_name_H-M    'P1'
_symmetry_Int_Tables_number       1
_symmetry_cell_setting            triclinic
loop_
_symmetry_equiv_pos_as_xyz
  x,y,z
_cell_length_a                    37.2379
_cell_length_b                    37.2379
_cell_length_c                    3.5263
_cell_angle_alpha                 90.0000
_cell_angle_beta                  90.0000
_cell_angle_gamma                 120.0000
loop_
_atom_site_label
_atom_site_type_symbol
_atom_site_fract_x
_atom_site_fract_y
_atom_site_fract_z
_atom_site_U_iso_or_equiv
_atom_site_adp_type
_atom_site_occupancy
N1     N     0.88401   0.44824   0.50000   0.00000  Uiso   1.00
N2     N     0.55176   0.43577   0.50000   0.00000  Uiso   1.00
N3     N     0.56423   0.11599   0.50000   0.00000  Uiso   1.00
N4     N     0.11599   0.55176   0.50000   0.00000  Uiso   1.00
N5     N     0.44824   0.56423   0.50000   0.00000  Uiso   1.00
N6     N     0.43577   0.88401   0.50000   0.00000  Uiso   1.00
C7     C     0.91454   0.43856   0.50000   0.00000  Uiso   1.00
H8     H     0.90690   0.40811   0.50000   0.00000  Uiso   1.00
C9     C     0.56144   0.47598   0.50000   0.00000  Uiso   1.00
H10    H     0.59189   0.49879   0.50000   0.00000  Uiso   1.00
C11    C     0.52402   0.08546   0.50000   0.00000  Uiso   1.00
H12    H     0.50121   0.09310   0.50000   0.00000  Uiso   1.00
C13    C     0.08546   0.56144   0.50000   0.00000  Uiso   1.00
H14    H     0.09310   0.59189   0.50000   0.00000  Uiso   1.00
C15    C     0.43856   0.52402   0.50000   0.00000  Uiso   1.00
H16    H     0.40811   0.50121   0.50000   0.00000  Uiso   1.00
C17    C     0.47598   0.91454   0.50000   0.00000  Uiso   1.00
H18    H     0.49879   0.90690   0.50000   0.00000  Uiso   1.00
C19    C     0.95683   0.46932   0.50000   0.00000  Uiso   1.00
C20    C     0.53068   0.48751   0.50000   0.00000  Uiso   1.00
C21    C     0.51249   0.04317   0.50000   0.00000  Uiso   1.00
C22    C     0.04317   0.53068   0.50000   0.00000  Uiso   1.00
C23    C     0.46932   0.51249   0.50000   0.00000  Uiso   1.00
C24    C     0.48751   0.95683   0.50000   0.00000  Uiso   1.00
C25    C     0.98766   0.45771   0.50000   0.00000  Uiso   1.00
C26    C     0.54229   0.52995   0.50000   0.00000  Uiso   1.00
C27    C     0.47005   0.01234   0.50000   0.00000  Uiso   1.00
C28    C     0.01234   0.54229   0.50000   0.00000  Uiso   1.00
C29    C     0.45771   0.47005   0.50000   0.00000  Uiso   1.00
C30    C     0.52995   0.98766   0.50000   0.00000  Uiso   1.00
C31    C     0.03007   0.48786   0.50000   0.00000  Uiso   1.00
C32    C     0.51214   0.54220   0.50000   0.00000  Uiso   1.00
C33    C     0.45780   0.96993   0.50000   0.00000  Uiso   1.00
C34    C     0.96993   0.51214   0.50000   0.00000  Uiso   1.00
C35    C     0.48786   0.45780   0.50000   0.00000  Uiso   1.00
C36    C     0.54220   0.03007   0.50000   0.00000  Uiso   1.00
H37    H     0.97955   0.42708   0.50000   0.00000  Uiso   1.00
H38    H     0.57292   0.55247   0.50000   0.00000  Uiso   1.00
H39    H     0.44753   0.02045   0.50000   0.00000  Uiso   1.00
H40    H     0.02045   0.57292   0.50000   0.00000  Uiso   1.00
H41    H     0.42708   0.44753   0.50000   0.00000  Uiso   1.00
H42    H     0.55247   0.97955   0.50000   0.00000  Uiso   1.00
H43    H     0.05141   0.47821   0.50000   0.00000  Uiso   1.00
H44    H     0.52179   0.57320   0.50000   0.00000  Uiso   1.00
H45    H     0.42680   0.94859   0.50000   0.00000  Uiso   1.00
H46    H     0.94859   0.52179   0.50000   0.00000  Uiso   1.00
H47    H     0.47821   0.42680   0.50000   0.00000  Uiso   1.00
H48    H     0.57320   0.05141   0.50000   0.00000  Uiso   1.00
C49    C     0.17947   0.61985   0.50000   0.00000  Uiso   1.00
C50    C     0.22313   0.64234   0.50000   0.00000  Uiso   1.00
C51    C     0.38015   0.55963   0.50000   0.00000  Uiso   1.00
C52    C     0.35766   0.58079   0.50000   0.00000  Uiso   1.00
C53    C     0.44037   0.82053   0.50000   0.00000  Uiso   1.00
C54    C     0.41921   0.77687   0.50000   0.00000  Uiso   1.00
C55    C     0.82053   0.38015   0.50000   0.00000  Uiso   1.00
C56    C     0.77687   0.35766   0.50000   0.00000  Uiso   1.00
C57    C     0.61985   0.44037   0.50000   0.00000  Uiso   1.00
C58    C     0.64234   0.41921   0.50000   0.00000  Uiso   1.00
C59    C     0.55963   0.17947   0.50000   0.00000  Uiso   1.00
C60    C     0.58079   0.22313   0.50000   0.00000  Uiso   1.00
H61    H     0.16382   0.63580   0.50000   0.00000  Uiso   1.00
H62    H     0.23759   0.67403   0.50000   0.00000  Uiso   1.00
H63    H     0.36420   0.52801   0.50000   0.00000  Uiso   1.00
H64    H     0.32597   0.56355   0.50000   0.00000  Uiso   1.00
H65    H     0.47199   0.83618   0.50000   0.00000  Uiso   1.00
H66    H     0.43645   0.76241   0.50000   0.00000  Uiso   1.00
H67    H     0.83618   0.36420   0.50000   0.00000  Uiso   1.00
H68    H     0.76241   0.32597   0.50000   0.00000  Uiso   1.00
H69    H     0.63580   0.47199   0.50000   0.00000  Uiso   1.00
H70    H     0.67403   0.43645   0.50000   0.00000  Uiso   1.00
H71    H     0.52801   0.16382   0.50000   0.00000  Uiso   1.00
H72    H     0.56355   0.23759   0.50000   0.00000  Uiso   1.00
C73    C     0.37463   0.81913   0.50000   0.00000  Uiso   1.00
C74    C     0.35346   0.77548   0.50000   0.00000  Uiso   1.00
C75    C     0.18087   0.55550   0.50000   0.00000  Uiso   1.00
C76    C     0.22452   0.57798   0.50000   0.00000  Uiso   1.00
C77    C     0.44450   0.62537   0.50000   0.00000  Uiso   1.00
C78    C     0.42202   0.64654   0.50000   0.00000  Uiso   1.00
C79    C     0.62537   0.18087   0.50000   0.00000  Uiso   1.00
C80    C     0.64654   0.22452   0.50000   0.00000  Uiso   1.00
C81    C     0.81913   0.44450   0.50000   0.00000  Uiso   1.00
C82    C     0.77548   0.42202   0.50000   0.00000  Uiso   1.00
C83    C     0.55550   0.37463   0.50000   0.00000  Uiso   1.00
C84    C     0.57798   0.35346   0.50000   0.00000  Uiso   1.00
H85    H     0.35798   0.83419   0.50000   0.00000  Uiso   1.00
H86    H     0.32174   0.76004   0.50000   0.00000  Uiso   1.00
H87    H     0.16581   0.52380   0.50000   0.00000  Uiso   1.00
H88    H     0.23996   0.56170   0.50000   0.00000  Uiso   1.00
H89    H     0.47620   0.64202   0.50000   0.00000  Uiso   1.00
H90    H     0.43830   0.67826   0.50000   0.00000  Uiso   1.00
H91    H     0.64202   0.16581   0.50000   0.00000  Uiso   1.00
H92    H     0.67826   0.23996   0.50000   0.00000  Uiso   1.00
H93    H     0.83419   0.47620   0.50000   0.00000  Uiso   1.00
H94    H     0.76004   0.43830   0.50000   0.00000  Uiso   1.00
H95    H     0.52380   0.35798   0.50000   0.00000  Uiso   1.00
H96    H     0.56170   0.32174   0.50000   0.00000  Uiso   1.00
C97    C     0.35398   0.70934   0.50000   0.00000  Uiso   1.00
C98    C     0.29066   0.64465   0.50000   0.00000  Uiso   1.00
C99    C     0.35535   0.64602   0.50000   0.00000  Uiso   1.00
C100   C     0.41825   0.84219   0.50000   0.00000  Uiso   1.00
C101   C     0.15781   0.57606   0.50000   0.00000  Uiso   1.00
C102   C     0.42394   0.58175   0.50000   0.00000  Uiso   1.00
C103   C     0.37525   0.75328   0.50000   0.00000  Uiso   1.00
C104   C     0.24672   0.62197   0.50000   0.00000  Uiso   1.00
C105   C     0.37803   0.62475   0.50000   0.00000  Uiso   1.00
N106   N     0.37471   0.68802   0.50000   0.00000  Uiso   1.00
N107   N     0.31198   0.68669   0.50000   0.00000  Uiso   1.00
N108   N     0.31331   0.62529   0.50000   0.00000  Uiso   1.00
C109   C     0.64602   0.29066   0.50000   0.00000  Uiso   1.00
C110   C     0.70934   0.35535   0.50000   0.00000  Uiso   1.00
C111   C     0.64465   0.35398   0.50000   0.00000  Uiso   1.00
C112   C     0.58175   0.15781   0.50000   0.00000  Uiso   1.00
C113   C     0.84219   0.42394   0.50000   0.00000  Uiso   1.00
C114   C     0.57606   0.41825   0.50000   0.00000  Uiso   1.00
C115   C     0.62475   0.24672   0.50000   0.00000  Uiso   1.00
C116   C     0.75328   0.37803   0.50000   0.00000  Uiso   1.00
C117   C     0.62197   0.37525   0.50000   0.00000  Uiso   1.00
N118   N     0.62529   0.31198   0.50000   0.00000  Uiso   1.00
N119   N     0.68802   0.31331   0.50000   0.00000  Uiso   1.00
N120   N     0.68669   0.37471   0.50000   0.00000  Uiso   1.00
loop_
_geom_bond_atom_site_label_1
_geom_bond_atom_site_label_2
_geom_bond_distance
_geom_bond_site_symmetry_2
_ccdc_geom_bond_type
N1     C113    1.354   .     S
N1     C7      1.354   .     S
N2     C114    1.354   .     S
N2     C9      1.354   .     S
N3     C112    1.354   .     S
N3     C11     1.354   .     S
N4     C13     1.354   .     S
N4     C101    1.354   .     S
N5     C102    1.354   .     S
N5     C15     1.354   .     S
N6     C17     1.354   .     S
N6     C100    1.354   .     S
C7     H8      1.022   .     S
C7     C19     1.410   .     S
C9     C20     1.410   .     S
C9     H10     1.022   .     S
C11    H12     1.022   .     S
C11    C21     1.410   .     S
C13    H14     1.022   .     S
C13    C22     1.410   .     S
C15    H16     1.022   .     S
C15    C23     1.410   .     S
C17    H18     1.022   .     S
C17    C24     1.410   .     S
C19    C25     1.415   .     S
C19    C34     1.415   .     S
C20    C35     1.415   .     S
C20    C26     1.415   .     S
C21    C27     1.415   .     S
C21    C36     1.415   .     S
C22    C28     1.415   .     S
C22    C31     1.415   .     S
C23    C32     1.415   .     S
C23    C29     1.415   .     S
C24    C30     1.415   .     S
C24    C33     1.415   .     S
C25    H37     1.024   .     S
C26    C32     1.407   .     S
C26    H38     1.024   .     S
C27    H39     1.024   .     S
C28    H40     1.024   .     S
C29    H41     1.024   .     S
C29    C35     1.407   .     S
C30    H42     1.024   .     S
C31    H43     1.023   .     S
C32    H44     1.023   .     S
C33    H45     1.023   .     S
C34    H46     1.023   .     S
C35    H47     1.023   .     S
C36    H48     1.023   .     S
C49    C50     1.408   .     S
C49    H61     1.020   .     S
C49    C101    1.412   .     S
C50    C104    1.419   .     S
C50    H62     1.023   .     S
C51    C102    1.412   .     S
C51    C52     1.408   .     S
C51    H63     1.020   .     S
C52    H64     1.023   .     S
C52    C105    1.419   .     S
C53    C54     1.408   .     S
C53    C100    1.412   .     S
C53    H65     1.020   .     S
C54    C103    1.419   .     S
C54    H66     1.023   .     S
C55    H67     1.020   .     S
C55    C56     1.408   .     S
C55    C113    1.412   .     S
C56    C116    1.419   .     S
C56    H68     1.023   .     S
C57    H69     1.020   .     S
C57    C114    1.412   .     S
C57    C58     1.408   .     S
C58    H70     1.023   .     S
C58    C117    1.419   .     S
C59    C60     1.408   .     S
C59    H71     1.020   .     S
C59    C112    1.412   .     S
C60    H72     1.023   .     S
C60    C115    1.419   .     S
C73    C74     1.408   .     S
C73    C100    1.407   .     S
C73    H85     1.023   .     S
C74    C103    1.419   .     S
C74    H86     1.023   .     S
C75    C101    1.407   .     S
C75    C76     1.408   .     S
C75    H87     1.023   .     S
C76    H88     1.023   .     S
C76    C104    1.419   .     S
C77    C78     1.408   .     S
C77    H89     1.023   .     S
C77    C102    1.407   .     S
C78    C105    1.419   .     S
C78    H90     1.023   .     S
C79    H91     1.023   .     S
C79    C80     1.408   .     S
C79    C112    1.407   .     S
C80    H92     1.023   .     S
C80    C115    1.419   .     S
C81    H93     1.023   .     S
C81    C82     1.408   .     S
C81    C113    1.407   .     S
C82    H94     1.023   .     S
C82    C116    1.419   .     S
C83    H95     1.023   .     S
C83    C84     1.408   .     S
C83    C114    1.407   .     S
C84    C117    1.419   .     S
C84    H96     1.023   .     S
C97    N107    1.356   .     S
C97    N106    1.356   .     S
C97    C103    1.417   .     S
C98    C104    1.417   .     S
C98    N108    1.356   .     S
C98    N107    1.356   .     S
C99    N108    1.356   .     S
C99    C105    1.417   .     S
C99    N106    1.356   .     S
C109   N118    1.356   .     S
C109   N119    1.356   .     S
C109   C115    1.417   .     S
C110   C116    1.417   .     S
C110   N120    1.356   .     S
C110   N119    1.356   .     S
C111   C117    1.417   .     S
C111   N120    1.356   .     S
C111   N118    1.356   .     S
