data_PI-COF-5-0P
_audit_creation_date              2016-12-13
_audit_creation_method            'Materials Studio'
_symmetry_space_group_name_H-M    'P1'
_symmetry_Int_Tables_number       1
_symmetry_cell_setting            triclinic
loop_
_symmetry_equiv_pos_as_xyz
  x,y,z
_cell_length_a                    30.8042
_cell_length_b                    30.8042
_cell_length_c                    30.8042
_cell_angle_alpha                 124.1845
_cell_angle_beta                  124.1845
_cell_angle_gamma                 82.8933
loop_
_atom_site_label
_atom_site_type_symbol
_atom_site_fract_x
_atom_site_fract_y
_atom_site_fract_z
_atom_site_U_iso_or_equiv
_atom_site_adp_type
_atom_site_occupancy
H1     H     0.39378   0.48130   0.95719   0.00000  Uiso   1.00
C1     C     0.44089   0.32206   0.88071   0.00000  Uiso   1.00
C2     C     0.43368   0.23253   0.86445   0.00000  Uiso   1.00
C3     C     0.40598   0.17477   0.81022   0.00000  Uiso   1.00
C4     C     0.38639   0.22695   0.77449   0.00000  Uiso   1.00
C5     C     0.37615   0.17125   0.75347   0.00000  Uiso   1.00
C6     C     0.40611   0.12867   0.80919   0.00000  Uiso   1.00
C7     C     0.40488   0.52708   0.05060   0.00000  Uiso   1.00
C8     C     0.48013   0.52266   0.04292   0.00000  Uiso   1.00
C9     C     0.42392   0.50845   0.01299   0.00000  Uiso   1.00
C10    C     0.49747   0.57389   0.14930   0.00000  Uiso   1.00
C11    C     0.51658   0.55528   0.11176   0.00000  Uiso   1.00
O1     O     0.46382   0.25120   0.92223   0.00000  Uiso   1.00
O2     O     0.36677   0.23975   0.73759   0.00000  Uiso   1.00
N1     N     0.42125   0.26329   0.84173   0.00000  Uiso   1.00
H2     H     0.43130   0.13354   0.85716   0.00000  Uiso   1.00
H3     H     0.35905   0.51506   0.02480   0.00000  Uiso   1.00
H4     H     0.52812   0.60054   0.20503   0.00000  Uiso   1.00
H5     H     0.56233   0.56650   0.13687   0.00000  Uiso   1.00
H6     H     0.52411   0.43659   0.04281   0.00000  Uiso   1.00
C12    C     0.44135   0.56018   0.11929   0.00000  Uiso   1.00
C13    C     0.36808   0.56923   0.13555   0.00000  Uiso   1.00
C14    C     0.36455   0.59576   0.18978   0.00000  Uiso   1.00
C15    C     0.45246   0.61190   0.22551   0.00000  Uiso   1.00
C16    C     0.41778   0.62268   0.24653   0.00000  Uiso   1.00
C17    C     0.31948   0.59692   0.19081   0.00000  Uiso   1.00
C18    C     0.47648   0.35428   0.94940   0.00000  Uiso   1.00
C19    C     0.47974   0.43721   0.95708   0.00000  Uiso   1.00
C20    C     0.49546   0.41093   0.98701   0.00000  Uiso   1.00
C21    C     0.42459   0.34817   0.85070   0.00000  Uiso   1.00
C22    C     0.44352   0.40482   0.88824   0.00000  Uiso   1.00
O3     O     0.32897   0.54159   0.07777   0.00000  Uiso   1.00
O4     O     0.50216   0.62918   0.26241   0.00000  Uiso   1.00
N2     N     0.42156   0.57952   0.15827   0.00000  Uiso   1.00
H7     H     0.27638   0.57414   0.14284   0.00000  Uiso   1.00
H8     H     0.49026   0.33425   0.97520   0.00000  Uiso   1.00
H9     H     0.39551   0.32309   0.79497   0.00000  Uiso   1.00
H10    H     0.42963   0.42546   0.86313   0.00000  Uiso   1.00
H11    H     0.23130   0.77411   0.58752   0.00000  Uiso   1.00
C23    C     0.07206   0.69135   0.38117   0.00000  Uiso   1.00
C24    C     0.98253   0.61808   0.29885   0.00000  Uiso   1.00
C25    C     0.92477   0.61455   0.26879   0.00000  Uiso   1.00
C26    C     0.97695   0.70246   0.34056   0.00000  Uiso   1.00
C27    C     0.92125   0.66778   0.29510   0.00000  Uiso   1.00
C28    C     0.87867   0.56948   0.22256   0.00000  Uiso   1.00
C29    C     0.27708   0.72648   0.62220   0.00000  Uiso   1.00
C30    C     0.27266   0.72974   0.54253   0.00000  Uiso   1.00
C31    C     0.25845   0.74546   0.58453   0.00000  Uiso   1.00
C32    C     0.32389   0.67459   0.57642   0.00000  Uiso   1.00
C33    C     0.30528   0.69352   0.53870   0.00000  Uiso   1.00
O5     O     0.00120   0.57897   0.28738   0.00000  Uiso   1.00
O6     O     0.98975   0.75216   0.37298   0.00000  Uiso   1.00
N3     N     0.01329   0.67156   0.34204   0.00000  Uiso   1.00
H12    H     0.88354   0.52638   0.20224   0.00000  Uiso   1.00
H13    H     0.26506   0.74026   0.65601   0.00000  Uiso   1.00
H14    H     0.35054   0.64551   0.57242   0.00000  Uiso   1.00
H15    H     0.31650   0.67963   0.50417   0.00000  Uiso   1.00
H16    H     0.18659   0.64378   0.41248   0.00000  Uiso   1.00
C34    C     0.31018   0.69089   0.61883   0.00000  Uiso   1.00
C35    C     0.31923   0.68368   0.70115   0.00000  Uiso   1.00
C36    C     0.34576   0.65598   0.73121   0.00000  Uiso   1.00
C37    C     0.36190   0.63639   0.65944   0.00000  Uiso   1.00
C38    C     0.37268   0.62615   0.70490   0.00000  Uiso   1.00
C39    C     0.34692   0.65611   0.77744   0.00000  Uiso   1.00
C40    C     0.10428   0.65488   0.37780   0.00000  Uiso   1.00
C41    C     0.18721   0.73013   0.45747   0.00000  Uiso   1.00
C42    C     0.16093   0.67392   0.41547   0.00000  Uiso   1.00
C43    C     0.09817   0.74747   0.42358   0.00000  Uiso   1.00
C44    C     0.15482   0.76658   0.46130   0.00000  Uiso   1.00
O7     O     0.29159   0.71382   0.71262   0.00000  Uiso   1.00
O8     O     0.37918   0.61677   0.62702   0.00000  Uiso   1.00
N4     N     0.32952   0.67125   0.65796   0.00000  Uiso   1.00
H17    H     0.32414   0.68130   0.79776   0.00000  Uiso   1.00
H18    H     0.08425   0.60905   0.34399   0.00000  Uiso   1.00
H19    H     0.07309   0.77812   0.42758   0.00000  Uiso   1.00
H20    H     0.17546   0.81233   0.49583   0.00000  Uiso   1.00
H21    H     0.35622   0.76870   0.54281   0.00000  Uiso   1.00
C45    C     0.30912   0.92795   0.61929   0.00000  Uiso   1.00
C46    C     0.31633   0.01748   0.63555   0.00000  Uiso   1.00
C47    C     0.34403   0.07524   0.68978   0.00000  Uiso   1.00
C48    C     0.36362   0.02306   0.72551   0.00000  Uiso   1.00
C49    C     0.37386   0.07876   0.74653   0.00000  Uiso   1.00
C50    C     0.34389   0.12133   0.69081   0.00000  Uiso   1.00
C51    C     0.34513   0.72293   0.44940   0.00000  Uiso   1.00
C52    C     0.26988   0.72735   0.45708   0.00000  Uiso   1.00
C53    C     0.32609   0.74156   0.48701   0.00000  Uiso   1.00
C54    C     0.25254   0.67612   0.35070   0.00000  Uiso   1.00
C55    C     0.23343   0.69473   0.38824   0.00000  Uiso   1.00
O9     O     0.28618   0.99880   0.57777   0.00000  Uiso   1.00
O10    O     0.38323   0.01025   0.76241   0.00000  Uiso   1.00
N5     N     0.32875   0.98671   0.65827   0.00000  Uiso   1.00
H22    H     0.31870   0.11646   0.64284   0.00000  Uiso   1.00
H23    H     0.39095   0.73494   0.47520   0.00000  Uiso   1.00
H24    H     0.22188   0.64946   0.29497   0.00000  Uiso   1.00
H25    H     0.18767   0.68350   0.36313   0.00000  Uiso   1.00
H26    H     0.22589   0.81341   0.45719   0.00000  Uiso   1.00
C56    C     0.30866   0.68983   0.38071   0.00000  Uiso   1.00
C57    C     0.38193   0.68078   0.36445   0.00000  Uiso   1.00
C58    C     0.38546   0.65425   0.31022   0.00000  Uiso   1.00
C59    C     0.29755   0.63811   0.27449   0.00000  Uiso   1.00
C60    C     0.33223   0.62733   0.25347   0.00000  Uiso   1.00
C61    C     0.43052   0.65308   0.30919   0.00000  Uiso   1.00
C62    C     0.27353   0.89573   0.55060   0.00000  Uiso   1.00
C63    C     0.27027   0.81280   0.54292   0.00000  Uiso   1.00
C64    C     0.25455   0.83908   0.51299   0.00000  Uiso   1.00
C65    C     0.32542   0.90184   0.64930   0.00000  Uiso   1.00
C66    C     0.30649   0.84519   0.61176   0.00000  Uiso   1.00
O11    O     0.42103   0.70841   0.42223   0.00000  Uiso   1.00
O12    O     0.24784   0.62082   0.23759   0.00000  Uiso   1.00
N6     N     0.32844   0.67048   0.34173   0.00000  Uiso   1.00
H27    H     0.47362   0.67586   0.35716   0.00000  Uiso   1.00
H28    H     0.25974   0.91575   0.52480   0.00000  Uiso   1.00
H29    H     0.35449   0.92691   0.70503   0.00000  Uiso   1.00
H30    H     0.32037   0.82454   0.63687   0.00000  Uiso   1.00
H31    H     0.51870   0.47589   0.91248   0.00000  Uiso   1.00
C67    C     0.67795   0.55866   0.11883   0.00000  Uiso   1.00
C68    C     0.76748   0.63193   0.20115   0.00000  Uiso   1.00
C69    C     0.82524   0.63546   0.23121   0.00000  Uiso   1.00
C70    C     0.77306   0.54755   0.15944   0.00000  Uiso   1.00
C71    C     0.82876   0.58223   0.20490   0.00000  Uiso   1.00
C72    C     0.87133   0.68052   0.27744   0.00000  Uiso   1.00
C73    C     0.47293   0.52353   0.87780   0.00000  Uiso   1.00
C74    C     0.47735   0.52027   0.95747   0.00000  Uiso   1.00
C75    C     0.49156   0.50455   0.91547   0.00000  Uiso   1.00
C76    C     0.42612   0.57542   0.92358   0.00000  Uiso   1.00
C77    C     0.44473   0.55649   0.96130   0.00000  Uiso   1.00
O13    O     0.74880   0.67103   0.21262   0.00000  Uiso   1.00
O14    O     0.76025   0.49784   0.12702   0.00000  Uiso   1.00
N7     N     0.73671   0.57844   0.15796   0.00000  Uiso   1.00
H32    H     0.86646   0.72362   0.29776   0.00000  Uiso   1.00
H33    H     0.48494   0.50974   0.84399   0.00000  Uiso   1.00
H34    H     0.39946   0.60449   0.92758   0.00000  Uiso   1.00
H35    H     0.43350   0.57037   0.99583   0.00000  Uiso   1.00
H36    H     0.56341   0.60622   0.08752   0.00000  Uiso   1.00
C78    C     0.43983   0.55912   0.88117   0.00000  Uiso   1.00
C79    C     0.43078   0.56633   0.79885   0.00000  Uiso   1.00
C80    C     0.40425   0.59403   0.76879   0.00000  Uiso   1.00
C81    C     0.38811   0.61362   0.84056   0.00000  Uiso   1.00
C82    C     0.37733   0.62386   0.79510   0.00000  Uiso   1.00
C83    C     0.40308   0.59389   0.72256   0.00000  Uiso   1.00
C84    C     0.64573   0.59513   0.12220   0.00000  Uiso   1.00
C85    C     0.56280   0.51988   0.04253   0.00000  Uiso   1.00
C86    C     0.58908   0.57609   0.08453   0.00000  Uiso   1.00
C87    C     0.65184   0.50254   0.07642   0.00000  Uiso   1.00
C88    C     0.59519   0.48343   0.03870   0.00000  Uiso   1.00
O15    O     0.45841   0.53618   0.78738   0.00000  Uiso   1.00
O16    O     0.37082   0.63323   0.87298   0.00000  Uiso   1.00
N8     N     0.42048   0.57875   0.84204   0.00000  Uiso   1.00
H37    H     0.42586   0.56870   0.70224   0.00000  Uiso   1.00
H38    H     0.66575   0.64095   0.15601   0.00000  Uiso   1.00
H39    H     0.67691   0.47188   0.07242   0.00000  Uiso   1.00
H40    H     0.57454   0.43767   0.00417   0.00000  Uiso   1.00
C89    C     0.50000   0.50000  -0.00000   0.00000  Uiso   1.00
C90    C     0.25000   0.75000   0.50000   0.00000  Uiso   1.00
loop_
_geom_bond_atom_site_label_1
_geom_bond_atom_site_label_2
_geom_bond_distance
_geom_bond_site_symmetry_2
_ccdc_geom_bond_type
C1     C18     1.402   .     S
C1     C21     1.403   .     S
C1     N1      1.448   .     S
C2     C3      1.455   .     S
C2     N1      1.374   .     S
C2     O1      1.219   .     S
C3     C6      1.402   .     S
C3     C5      1.385   .     S
C4     O2      1.219   .     S
C4     C5      1.456   .     S
C4     N1      1.374   .     S
C5     C50     1.402   .     S
C6     H2      1.140   .     S
C6     C49     1.402   .     S
C7     H3      1.140   .     S
C7     C9      1.396   .     S
C7     C12     1.402   .     S
C8     C89     1.542   .     S
C8     C9      1.407   .     S
C8     C11     1.406   .     S
C10    C12     1.403   .     S
C10    C11     1.396   .     S
C10    H4      1.140   .     S
C11    H5      1.140   .     S
C12    N2      1.448   .     S
C13    N2      1.374   .     S
C13    O3      1.219   .     S
C13    C14     1.455   .     S
C14    C17     1.402   .     S
C14    C16     1.385   .     S
C15    C16     1.456   .     S
C15    N2      1.374   .     S
C15    O4      1.219   .     S
C16    C61     1.402   .     S
C17    C60     1.402   .     S
C17    H7      1.140   .     S
C18    C20     1.396   .     S
C18    H8      1.140   .     S
C19    C20     1.407   .     S
C19    C22     1.406   .     S
C21    H9      1.140   .     S
C21    C22     1.396   .     S
C22    H10     1.140   .     S
H11    C31     1.140   .     S
C23    C40     1.402   .     S
C23    C43     1.403   .     S
C23    N3      1.448   .     S
C24    C25     1.455   .     S
C25    C27     1.385   .     S
C25    C28     1.402   .     S
C26    C27     1.456   .     S
C26    O6      1.219   .     S
C27    C72     1.402   .     S
C28    H12     1.140   .     S
C28    C71     1.402   .     S
C29    H13     1.140   .     S
C29    C34     1.402   .     S
C29    C31     1.396   .     S
C30    C33     1.406   .     S
C30    C31     1.407   .     S
C30    C90     1.542   .     S
C32    H14     1.140   .     S
C32    C33     1.396   .     S
C32    C34     1.403   .     S
C33    H15     1.140   .     S
H16    C42     1.140   .     S
C34    N4      1.448   .     S
C35    C36     1.455   .     S
C35    O7      1.219   .     S
C35    N4      1.374   .     S
C36    C38     1.385   .     S
C36    C39     1.402   .     S
C37    O8      1.219   .     S
C37    N4      1.374   .     S
C37    C38     1.456   .     S
C38    C83     1.402   .     S
C39    H17     1.140   .     S
C39    C82     1.402   .     S
C40    C42     1.396   .     S
C40    H18     1.140   .     S
C41    C90     1.542   .     S
C41    C44     1.406   .     S
C41    C42     1.407   .     S
C43    H19     1.140   .     S
C43    C44     1.396   .     S
C44    H20     1.140   .     S
H21    C53     1.140   .     S
C45    N5      1.448   .     S
C45    C65     1.403   .     S
C45    C62     1.402   .     S
C46    C47     1.455   .     S
C47    C50     1.402   .     S
C47    C49     1.385   .     S
C48    C49     1.456   .     S
C48    O10     1.219   .     S
C50    H22     1.140   .     S
C51    H23     1.140   .     S
C51    C53     1.396   .     S
C51    C56     1.402   .     S
C52    C90     1.542   .     S
C52    C53     1.407   .     S
C52    C55     1.406   .     S
C54    C55     1.396   .     S
C54    C56     1.403   .     S
C54    H24     1.140   .     S
C55    H25     1.140   .     S
H26    C64     1.140   .     S
C56    N6      1.448   .     S
C57    O11     1.219   .     S
C57    N6      1.374   .     S
C57    C58     1.455   .     S
C58    C61     1.402   .     S
C58    C60     1.385   .     S
C59    N6      1.374   .     S
C59    O12     1.219   .     S
C59    C60     1.456   .     S
C61    H27     1.140   .     S
C62    H28     1.140   .     S
C62    C64     1.396   .     S
C63    C64     1.407   .     S
C63    C90     1.542   .     S
C63    C66     1.406   .     S
C65    C66     1.396   .     S
C65    H29     1.140   .     S
C66    H30     1.140   .     S
H31    C75     1.140   .     S
C67    N7      1.448   .     S
C67    C84     1.402   .     S
C67    C87     1.403   .     S
C68    O13     1.219   .     S
C68    C69     1.455   .     S
C68    N7      1.374   .     S
C69    C71     1.385   .     S
C69    C72     1.402   .     S
C70    N7      1.374   .     S
C70    O14     1.219   .     S
C70    C71     1.456   .     S
C72    H32     1.140   .     S
C73    C78     1.402   .     S
C73    C75     1.396   .     S
C73    H33     1.140   .     S
C74    C77     1.406   .     S
C74    C75     1.407   .     S
C76    H34     1.140   .     S
C76    C78     1.403   .     S
C76    C77     1.396   .     S
C77    H35     1.140   .     S
H36    C86     1.140   .     S
C78    N8      1.448   .     S
C79    N8      1.374   .     S
C79    O15     1.219   .     S
C79    C80     1.455   .     S
C80    C83     1.402   .     S
C80    C82     1.385   .     S
C81    C82     1.456   .     S
C81    N8      1.374   .     S
C81    O16     1.219   .     S
C83    H37     1.140   .     S
C84    H38     1.140   .     S
C84    C86     1.396   .     S
C85    C89     1.542   .     S
C85    C88     1.406   .     S
C85    C86     1.407   .     S
C87    C88     1.396   .     S
C87    H39     1.140   .     S
C88    H40     1.140   .     S
