data_PI-COF-4-0P
_audit_creation_date              2016-12-13
_audit_creation_method            'Materials Studio'
_symmetry_space_group_name_H-M    'P1'
_symmetry_Int_Tables_number       1
_symmetry_cell_setting            triclinic
loop_
_symmetry_equiv_pos_as_xyz
  x,y,z
_cell_length_a                    20.4900
_cell_length_b                    20.4900
_cell_length_c                    32.2000
_cell_angle_alpha                 90.0000
_cell_angle_beta                  90.0000
_cell_angle_gamma                 90.0000
loop_
_atom_site_label
_atom_site_type_symbol
_atom_site_fract_x
_atom_site_fract_y
_atom_site_fract_z
_atom_site_U_iso_or_equiv
_atom_site_adp_type
_atom_site_occupancy
C1     C     0.34761   0.69707   0.30115   0.00000  Uiso   1.00
C2     C     0.29434   0.71643   0.27385   0.00000  Uiso   1.00
O1     O     0.36507   0.64090   0.30562   0.00000  Uiso   1.00
H1     H     0.43986   0.85703   0.35718   0.00000  Uiso   1.00
C3     C     0.84761   0.19707   0.80115   0.00000  Uiso   1.00
C4     C     0.79434   0.21643   0.77385   0.00000  Uiso   1.00
O2     O     0.86507   0.14090   0.80562   0.00000  Uiso   1.00
H2     H     0.93986   0.35703   0.85718   0.00000  Uiso   1.00
C5     C     0.15239   0.30293   0.80115   0.00000  Uiso   1.00
C6     C     0.20566   0.28357   0.77385   0.00000  Uiso   1.00
O3     O     0.13493   0.35910   0.80562   0.00000  Uiso   1.00
H3     H     0.06014   0.14297   0.85718   0.00000  Uiso   1.00
C7     C     0.65239   0.80293   0.30115   0.00000  Uiso   1.00
C8     C     0.70566   0.78357   0.27385   0.00000  Uiso   1.00
O4     O     0.63493   0.85910   0.30562   0.00000  Uiso   1.00
H4     H     0.56014   0.64297   0.35718   0.00000  Uiso   1.00
C9     C     0.55293   0.09761   0.55115   0.00000  Uiso   1.00
C10    C     0.53357   0.04434   0.52385   0.00000  Uiso   1.00
O5     O     0.60910   0.11507   0.55562   0.00000  Uiso   1.00
H5     H     0.39297   0.18986   0.60718   0.00000  Uiso   1.00
C11    C     0.05293   0.59761   0.05115   0.00000  Uiso   1.00
C12    C     0.03357   0.54434   0.02385   0.00000  Uiso   1.00
O6     O     0.10910   0.61507   0.05562   0.00000  Uiso   1.00
H6     H     0.89297   0.68986   0.10718   0.00000  Uiso   1.00
C13    C     0.94707   0.90239   0.05115   0.00000  Uiso   1.00
C14    C     0.96643   0.95566   0.02385   0.00000  Uiso   1.00
O7     O     0.89090   0.88493   0.05562   0.00000  Uiso   1.00
H7     H     0.10703   0.81014   0.10718   0.00000  Uiso   1.00
C15    C     0.44707   0.40239   0.55115   0.00000  Uiso   1.00
C16    C     0.46643   0.45566   0.52385   0.00000  Uiso   1.00
O8     O     0.39090   0.38493   0.55562   0.00000  Uiso   1.00
H8     H     0.60703   0.31014   0.60718   0.00000  Uiso   1.00
C17    C     0.15239   0.69707   0.19885   0.00000  Uiso   1.00
C18    C     0.20566   0.71643   0.22615   0.00000  Uiso   1.00
O9     O     0.13493   0.64090   0.19438   0.00000  Uiso   1.00
H9     H     0.06014   0.85703   0.14282   0.00000  Uiso   1.00
C19    C     0.65239   0.19707   0.69885   0.00000  Uiso   1.00
C20    C     0.70566   0.21643   0.72615   0.00000  Uiso   1.00
O10    O     0.63493   0.14090   0.69438   0.00000  Uiso   1.00
H10    H     0.56014   0.35703   0.64282   0.00000  Uiso   1.00
C21    C     0.34761   0.30293   0.69885   0.00000  Uiso   1.00
C22    C     0.29434   0.28357   0.72615   0.00000  Uiso   1.00
O11    O     0.36507   0.35910   0.69438   0.00000  Uiso   1.00
H11    H     0.43986   0.14297   0.64282   0.00000  Uiso   1.00
C23    C     0.84761   0.80293   0.19885   0.00000  Uiso   1.00
C24    C     0.79434   0.78357   0.22615   0.00000  Uiso   1.00
O12    O     0.86507   0.85910   0.19438   0.00000  Uiso   1.00
H12    H     0.93986   0.64297   0.14282   0.00000  Uiso   1.00
C25    C     0.94707   0.09761   0.94885   0.00000  Uiso   1.00
C26    C     0.96643   0.04434   0.97615   0.00000  Uiso   1.00
O13    O     0.89090   0.11507   0.94438   0.00000  Uiso   1.00
H13    H     0.10703   0.18986   0.89282   0.00000  Uiso   1.00
C27    C     0.44707   0.59761   0.44885   0.00000  Uiso   1.00
C28    C     0.46643   0.54434   0.47615   0.00000  Uiso   1.00
O14    O     0.39090   0.61507   0.44438   0.00000  Uiso   1.00
H14    H     0.60703   0.68986   0.39282   0.00000  Uiso   1.00
C29    C     0.55293   0.90239   0.44885   0.00000  Uiso   1.00
C30    C     0.53357   0.95566   0.47615   0.00000  Uiso   1.00
O15    O     0.60910   0.88493   0.44438   0.00000  Uiso   1.00
H15    H     0.39297   0.81014   0.39282   0.00000  Uiso   1.00
C31    C     0.05293   0.40239   0.94885   0.00000  Uiso   1.00
C32    C     0.03357   0.45566   0.97615   0.00000  Uiso   1.00
O16    O     0.10910   0.38493   0.94438   0.00000  Uiso   1.00
H16    H     0.89297   0.31014   0.89282   0.00000  Uiso   1.00
C33    C     0.65239   0.30293   0.69885   0.00000  Uiso   1.00
C34    C     0.70566   0.28357   0.72615   0.00000  Uiso   1.00
O17    O     0.63493   0.35910   0.69438   0.00000  Uiso   1.00
H17    H     0.56014   0.14297   0.64282   0.00000  Uiso   1.00
C35    C     0.15239   0.80293   0.19885   0.00000  Uiso   1.00
C36    C     0.20566   0.78357   0.22615   0.00000  Uiso   1.00
O18    O     0.13493   0.85910   0.19438   0.00000  Uiso   1.00
H18    H     0.06014   0.64297   0.14282   0.00000  Uiso   1.00
C37    C     0.84761   0.69707   0.19885   0.00000  Uiso   1.00
C38    C     0.79434   0.71643   0.22615   0.00000  Uiso   1.00
O19    O     0.86507   0.64090   0.19438   0.00000  Uiso   1.00
H19    H     0.93986   0.85703   0.14282   0.00000  Uiso   1.00
C39    C     0.34761   0.19707   0.69885   0.00000  Uiso   1.00
C40    C     0.29434   0.21643   0.72615   0.00000  Uiso   1.00
O20    O     0.36507   0.14090   0.69438   0.00000  Uiso   1.00
H20    H     0.43986   0.35703   0.64282   0.00000  Uiso   1.00
C41    C     0.44707   0.90239   0.44885   0.00000  Uiso   1.00
C42    C     0.46643   0.95566   0.47615   0.00000  Uiso   1.00
O21    O     0.39090   0.88493   0.44438   0.00000  Uiso   1.00
H21    H     0.60703   0.81014   0.39282   0.00000  Uiso   1.00
C43    C     0.94707   0.40239   0.94885   0.00000  Uiso   1.00
C44    C     0.96643   0.45566   0.97615   0.00000  Uiso   1.00
O22    O     0.89090   0.38493   0.94438   0.00000  Uiso   1.00
H22    H     0.10703   0.31014   0.89282   0.00000  Uiso   1.00
C45    C     0.05293   0.09761   0.94885   0.00000  Uiso   1.00
C46    C     0.03357   0.04434   0.97615   0.00000  Uiso   1.00
O23    O     0.10910   0.11507   0.94438   0.00000  Uiso   1.00
H23    H     0.89297   0.18986   0.89282   0.00000  Uiso   1.00
C47    C     0.55293   0.59761   0.44885   0.00000  Uiso   1.00
C48    C     0.53357   0.54434   0.47615   0.00000  Uiso   1.00
O24    O     0.60910   0.61507   0.44438   0.00000  Uiso   1.00
H24    H     0.39297   0.68986   0.39282   0.00000  Uiso   1.00
C49    C     0.84761   0.30293   0.80115   0.00000  Uiso   1.00
C50    C     0.79434   0.28357   0.77385   0.00000  Uiso   1.00
O25    O     0.86507   0.35910   0.80562   0.00000  Uiso   1.00
H25    H     0.93986   0.14297   0.85718   0.00000  Uiso   1.00
C51    C     0.34761   0.80293   0.30115   0.00000  Uiso   1.00
C52    C     0.29434   0.78357   0.27385   0.00000  Uiso   1.00
O26    O     0.36507   0.85910   0.30562   0.00000  Uiso   1.00
H26    H     0.43986   0.64297   0.35718   0.00000  Uiso   1.00
C53    C     0.65239   0.69707   0.30115   0.00000  Uiso   1.00
C54    C     0.70566   0.71643   0.27385   0.00000  Uiso   1.00
O27    O     0.63493   0.64090   0.30562   0.00000  Uiso   1.00
H27    H     0.56014   0.85703   0.35718   0.00000  Uiso   1.00
C55    C     0.15239   0.19707   0.80115   0.00000  Uiso   1.00
C56    C     0.20566   0.21643   0.77385   0.00000  Uiso   1.00
O28    O     0.13493   0.14090   0.80562   0.00000  Uiso   1.00
H28    H     0.06014   0.35703   0.85718   0.00000  Uiso   1.00
C57    C     0.05293   0.90239   0.05115   0.00000  Uiso   1.00
C58    C     0.03357   0.95566   0.02385   0.00000  Uiso   1.00
O29    O     0.10910   0.88493   0.05562   0.00000  Uiso   1.00
H29    H     0.89297   0.81014   0.10718   0.00000  Uiso   1.00
C59    C     0.55293   0.40239   0.55115   0.00000  Uiso   1.00
C60    C     0.53357   0.45566   0.52385   0.00000  Uiso   1.00
O30    O     0.60910   0.38493   0.55562   0.00000  Uiso   1.00
H30    H     0.39297   0.31014   0.60718   0.00000  Uiso   1.00
C61    C     0.44707   0.09761   0.55115   0.00000  Uiso   1.00
C62    C     0.46643   0.04434   0.52385   0.00000  Uiso   1.00
O31    O     0.39090   0.11507   0.55562   0.00000  Uiso   1.00
H31    H     0.60703   0.18986   0.60718   0.00000  Uiso   1.00
C63    C     0.94707   0.59761   0.05115   0.00000  Uiso   1.00
C64    C     0.96643   0.54434   0.02385   0.00000  Uiso   1.00
O32    O     0.89090   0.61507   0.05562   0.00000  Uiso   1.00
H32    H     0.10703   0.68986   0.10718   0.00000  Uiso   1.00
C65    C     0.43751   0.75000   0.34610   0.00000  Uiso   1.00
N1     N     0.37825   0.75000   0.31893   0.00000  Uiso   1.00
C66    C     0.06249   0.25000   0.84610   0.00000  Uiso   1.00
N2     N     0.12175   0.25000   0.81893   0.00000  Uiso   1.00
C67    C     0.50000   0.18751   0.59610   0.00000  Uiso   1.00
N3     N     0.50000   0.12825   0.56893   0.00000  Uiso   1.00
C68    C     0.00000   0.68751   0.09610   0.00000  Uiso   1.00
N4     N     0.00000   0.62825   0.06893   0.00000  Uiso   1.00
C69    C     0.00000   0.81249   0.09610   0.00000  Uiso   1.00
N5     N     0.00000   0.87175   0.06893   0.00000  Uiso   1.00
C70    C     0.50000   0.31249   0.59610   0.00000  Uiso   1.00
N6     N     0.50000   0.37175   0.56893   0.00000  Uiso   1.00
C71    C     0.06249   0.75000   0.15390   0.00000  Uiso   1.00
N7     N     0.12175   0.75000   0.18107   0.00000  Uiso   1.00
C72    C     0.43751   0.25000   0.65390   0.00000  Uiso   1.00
N8     N     0.37825   0.25000   0.68107   0.00000  Uiso   1.00
C73    C     0.00000   0.18751   0.90390   0.00000  Uiso   1.00
N9     N     0.00000   0.12825   0.93107   0.00000  Uiso   1.00
C74    C     0.50000   0.68751   0.40390   0.00000  Uiso   1.00
N10    N     0.50000   0.62825   0.43107   0.00000  Uiso   1.00
C75    C     0.50000   0.81249   0.40390   0.00000  Uiso   1.00
N11    N     0.50000   0.87175   0.43107   0.00000  Uiso   1.00
C76    C     0.00000   0.31249   0.90390   0.00000  Uiso   1.00
N12    N     0.00000   0.37175   0.93107   0.00000  Uiso   1.00
C77    C     0.56249   0.25000   0.65390   0.00000  Uiso   1.00
N13    N     0.62175   0.25000   0.68107   0.00000  Uiso   1.00
C78    C     0.93751   0.75000   0.15390   0.00000  Uiso   1.00
N14    N     0.87825   0.75000   0.18107   0.00000  Uiso   1.00
C79    C     0.93751   0.25000   0.84610   0.00000  Uiso   1.00
N15    N     0.87825   0.25000   0.81893   0.00000  Uiso   1.00
C80    C     0.56249   0.75000   0.34610   0.00000  Uiso   1.00
N16    N     0.62175   0.75000   0.31893   0.00000  Uiso   1.00
C81    C     0.43902   0.81098   0.37500   0.00000  Uiso   1.00
C82    C     0.93902   0.31098   0.87500   0.00000  Uiso   1.00
C83    C     0.06098   0.18902   0.87500   0.00000  Uiso   1.00
C84    C     0.56098   0.68902   0.37500   0.00000  Uiso   1.00
C85    C     0.43902   0.18902   0.62500   0.00000  Uiso   1.00
C86    C     0.93902   0.68902   0.12500   0.00000  Uiso   1.00
C87    C     0.06098   0.81098   0.12500   0.00000  Uiso   1.00
C88    C     0.56098   0.31098   0.62500   0.00000  Uiso   1.00
C89    C     0.56098   0.18902   0.62500   0.00000  Uiso   1.00
C90    C     0.06098   0.68902   0.12500   0.00000  Uiso   1.00
C91    C     0.93902   0.81098   0.12500   0.00000  Uiso   1.00
C92    C     0.43902   0.31098   0.62500   0.00000  Uiso   1.00
C93    C     0.56098   0.81098   0.37500   0.00000  Uiso   1.00
C94    C     0.06098   0.31098   0.87500   0.00000  Uiso   1.00
C95    C     0.93902   0.18902   0.87500   0.00000  Uiso   1.00
C96    C     0.43902   0.68902   0.37500   0.00000  Uiso   1.00
C97    C     0.25000   0.82010   0.25000   0.00000  Uiso   1.00
H33    H     0.25000   0.87305   0.25000   0.00000  Uiso   1.00
C98    C     0.75000   0.32010   0.75000   0.00000  Uiso   1.00
H34    H     0.75000   0.37305   0.75000   0.00000  Uiso   1.00
C99    C     0.25000   0.17990   0.75000   0.00000  Uiso   1.00
H35    H     0.25000   0.12695   0.75000   0.00000  Uiso   1.00
C100   C     0.75000   0.67990   0.25000   0.00000  Uiso   1.00
H36    H     0.75000   0.62695   0.25000   0.00000  Uiso   1.00
C101   C     0.42990   0.00000   0.50000   0.00000  Uiso   1.00
H37    H     0.37695   0.00000   0.50000   0.00000  Uiso   1.00
C102   C     0.92990   0.50000   0.00000   0.00000  Uiso   1.00
H38    H     0.87695   0.50000   0.00000   0.00000  Uiso   1.00
C103   C     0.07010   0.00000   0.00000   0.00000  Uiso   1.00
H39    H     0.12305   0.00000   0.00000   0.00000  Uiso   1.00
C104   C     0.57010   0.50000   0.50000   0.00000  Uiso   1.00
H40    H     0.62305   0.50000   0.50000   0.00000  Uiso   1.00
C105   C     0.75000   0.17990   0.75000   0.00000  Uiso   1.00
H41    H     0.75000   0.12695   0.75000   0.00000  Uiso   1.00
C106   C     0.25000   0.67990   0.25000   0.00000  Uiso   1.00
H42    H     0.25000   0.62695   0.25000   0.00000  Uiso   1.00
C107   C     0.75000   0.82010   0.25000   0.00000  Uiso   1.00
H43    H     0.75000   0.87305   0.25000   0.00000  Uiso   1.00
C108   C     0.25000   0.32010   0.75000   0.00000  Uiso   1.00
H44    H     0.25000   0.37305   0.75000   0.00000  Uiso   1.00
C109   C     0.57010   0.00000   0.50000   0.00000  Uiso   1.00
H45    H     0.62305   0.00000   0.50000   0.00000  Uiso   1.00
C110   C     0.07010   0.50000   0.00000   0.00000  Uiso   1.00
H46    H     0.12305   0.50000   0.00000   0.00000  Uiso   1.00
C111   C     0.92990   0.00000   0.00000   0.00000  Uiso   1.00
H47    H     0.87695   0.00000   0.00000   0.00000  Uiso   1.00
C112   C     0.42990   0.50000   0.50000   0.00000  Uiso   1.00
H48    H     0.37695   0.50000   0.50000   0.00000  Uiso   1.00
C113   C     0.50000   0.75000   0.43016   0.00000  Uiso   1.00
C114   C     0.00000   0.25000   0.93016   0.00000  Uiso   1.00
C115   C     0.50000   0.25000   0.68016   0.00000  Uiso   1.00
C116   C     0.00000   0.75000   0.18016   0.00000  Uiso   1.00
C117   C     0.00000   0.75000   0.06984   0.00000  Uiso   1.00
C118   C     0.50000   0.25000   0.56984   0.00000  Uiso   1.00
C119   C     0.00000   0.25000   0.81984   0.00000  Uiso   1.00
C120   C     0.50000   0.75000   0.31984   0.00000  Uiso   1.00
H49    H     0.50000   0.73274   0.46281   0.00000  Uiso   1.00
H50    H     0.00000   0.23274   0.96281   0.00000  Uiso   1.00
H51    H     0.00000   0.26726   0.96281   0.00000  Uiso   1.00
H52    H     0.50000   0.76726   0.46281   0.00000  Uiso   1.00
H53    H     0.51726   0.25000   0.71281   0.00000  Uiso   1.00
H54    H     0.98274   0.75000   0.21281   0.00000  Uiso   1.00
H55    H     0.00000   0.73274   0.03719   0.00000  Uiso   1.00
H56    H     0.50000   0.23274   0.53719   0.00000  Uiso   1.00
H57    H     0.50000   0.26726   0.53719   0.00000  Uiso   1.00
H58    H     0.00000   0.76726   0.03719   0.00000  Uiso   1.00
H59    H     0.98274   0.25000   0.78719   0.00000  Uiso   1.00
H60    H     0.51726   0.75000   0.28719   0.00000  Uiso   1.00
H61    H     0.48274   0.75000   0.28719   0.00000  Uiso   1.00
H62    H     0.01726   0.25000   0.78719   0.00000  Uiso   1.00
H63    H     0.01726   0.75000   0.21281   0.00000  Uiso   1.00
H64    H     0.48274   0.25000   0.71281   0.00000  Uiso   1.00
loop_
_geom_bond_atom_site_label_1
_geom_bond_atom_site_label_2
_geom_bond_distance
_geom_bond_site_symmetry_2
_ccdc_geom_bond_type
C1     N1      1.378   .     S
C1     O1      1.214   .     S
C1     C2      1.456   .     S
C2     C52     1.376   .     S
C2     C106    1.406   .     S
H1     C81     1.104   .     S
C3     C4      1.456   .     S
C3     N15     1.378   .     S
C3     O2      1.214   .     S
C4     C50     1.376   .     S
C4     C105    1.406   .     S
H2     C82     1.104   .     S
C5     C6      1.456   .     S
C5     O3      1.214   .     S
C5     N2      1.378   .     S
C6     C56     1.376   .     S
C6     C108    1.406   .     S
H3     C83     1.104   .     S
C7     O4      1.214   .     S
C7     N16     1.378   .     S
C7     C8      1.456   .     S
C8     C107    1.406   .     S
C8     C54     1.376   .     S
H4     C84     1.104   .     S
C9     N3      1.378   .     S
C9     O5      1.214   .     S
C9     C10     1.456   .     S
C10    C109    1.406   .     S
C10    C62     1.376   .     S
H5     C85     1.104   .     S
C11    C12     1.456   .     S
C11    N4      1.378   .     S
C11    O6      1.214   .     S
C12    C110    1.406   .     S
H6     C86     1.104   .     S
C13    C14     1.456   .     S
C13    O7      1.214   .     S
H7     C87     1.104   .     S
C15    N6      1.378   .     S
C15    O8      1.214   .     S
C15    C16     1.456   .     S
C16    C112    1.406   .     S
C16    C60     1.376   .     S
H8     C88     1.104   .     S
C17    N7      1.378   .     S
C17    O9      1.214   .     S
C17    C18     1.456   .     S
C18    C36     1.376   .     S
C18    C106    1.406   .     S
H9     C87     1.104   .     S
C19    N13     1.378   .     S
C19    O10     1.214   .     S
C19    C20     1.456   .     S
C20    C105    1.406   .     S
C20    C34     1.376   .     S
H10    C88     1.104   .     S
C21    O11     1.214   .     S
C21    N8      1.378   .     S
C21    C22     1.456   .     S
C22    C108    1.406   .     S
C22    C40     1.376   .     S
H11    C85     1.104   .     S
C23    O12     1.214   .     S
C23    N14     1.378   .     S
C23    C24     1.456   .     S
C24    C107    1.406   .     S
C24    C38     1.376   .     S
H12    C86     1.104   .     S
C25    O13     1.214   .     S
C25    C26     1.456   .     S
H13    C83     1.104   .     S
C27    C28     1.456   .     S
C27    O14     1.214   .     S
C27    N10     1.378   .     S
C28    C48     1.376   .     S
C28    C112    1.406   .     S
H14    C84     1.104   .     S
C29    O15     1.214   .     S
C29    C30     1.456   .     S
C29    N11     1.378   .     S
C30    C42     1.376   .     S
H15    C81     1.104   .     S
C31    O16     1.214   .     S
C31    C32     1.456   .     S
C31    N12     1.378   .     S
H16    C82     1.104   .     S
C33    O17     1.214   .     S
C33    N13     1.378   .     S
C33    C34     1.456   .     S
C34    C98     1.406   .     S
H17    C89     1.104   .     S
C35    O18     1.214   .     S
C35    N7      1.378   .     S
C35    C36     1.456   .     S
C36    C97     1.406   .     S
H18    C90     1.104   .     S
C37    N14     1.378   .     S
C37    O19     1.214   .     S
C37    C38     1.456   .     S
C38    C100    1.406   .     S
H19    C91     1.104   .     S
C39    N8      1.378   .     S
C39    O20     1.214   .     S
C39    C40     1.456   .     S
C40    C99     1.406   .     S
H20    C92     1.104   .     S
C41    O21     1.214   .     S
C41    C42     1.456   .     S
C41    N11     1.378   .     S
H21    C93     1.104   .     S
C43    O22     1.214   .     S
C43    C44     1.456   .     S
H22    C94     1.104   .     S
C45    O23     1.214   .     S
C45    C46     1.456   .     S
C45    N9      1.378   .     S
H23    C95     1.104   .     S
C47    C48     1.456   .     S
C47    O24     1.214   .     S
C47    N10     1.378   .     S
C48    C104    1.406   .     S
H24    C96     1.104   .     S
C49    C50     1.456   .     S
C49    O25     1.214   .     S
C49    N15     1.378   .     S
C50    C98     1.406   .     S
H25    C95     1.104   .     S
C51    O26     1.214   .     S
C51    N1      1.378   .     S
C51    C52     1.456   .     S
C52    C97     1.406   .     S
H26    C96     1.104   .     S
C53    N16     1.378   .     S
C53    O27     1.214   .     S
C53    C54     1.456   .     S
C54    C100    1.406   .     S
H27    C93     1.104   .     S
C55    N2      1.378   .     S
C55    C56     1.456   .     S
C55    O28     1.214   .     S
C56    C99     1.406   .     S
H28    C94     1.104   .     S
C57    C58     1.456   .     S
C57    N5      1.378   .     S
C57    O29     1.214   .     S
H29    C91     1.104   .     S
C59    N6      1.378   .     S
C59    O30     1.214   .     S
C59    C60     1.456   .     S
C60    C104    1.406   .     S
H30    C92     1.104   .     S
C61    N3      1.378   .     S
C61    O31     1.214   .     S
C61    C62     1.456   .     S
C62    C101    1.406   .     S
H31    C89     1.104   .     S
C63    C64     1.456   .     S
C63    O32     1.214   .     S
C64    C102    1.406   .     S
H32    C90     1.104   .     S
C65    C81     1.558   .     S
C65    C96     1.558   .     S
C65    C120    1.534   .     S
C65    N1      1.496   .     S
C66    C83     1.558   .     S
C66    C94     1.558   .     S
C66    C119    1.534   .     S
C66    N2      1.496   .     S
C67    C118    1.534   .     S
C67    N3      1.496   .     S
C67    C85     1.558   .     S
C67    C89     1.558   .     S
C68    N4      1.496   .     S
C68    C117    1.534   .     S
C68    C90     1.558   .     S
C69    N5      1.496   .     S
C69    C117    1.534   .     S
C69    C87     1.558   .     S
C70    N6      1.496   .     S
C70    C118    1.534   .     S
C70    C92     1.558   .     S
C70    C88     1.558   .     S
C71    C87     1.558   .     S
C71    C90     1.558   .     S
C71    C116    1.534   .     S
C71    N7      1.496   .     S
C72    C85     1.558   .     S
C72    C92     1.558   .     S
C72    C115    1.534   .     S
C72    N8      1.496   .     S
C73    C114    1.534   .     S
C73    N9      1.496   .     S
C73    C83     1.558   .     S
C74    N10     1.496   .     S
C74    C113    1.534   .     S
C74    C96     1.558   .     S
C74    C84     1.558   .     S
C75    N11     1.496   .     S
C75    C113    1.534   .     S
C75    C81     1.558   .     S
C75    C93     1.558   .     S
C76    N12     1.496   .     S
C76    C114    1.534   .     S
C76    C94     1.558   .     S
C77    C89     1.558   .     S
C77    C88     1.558   .     S
C77    C115    1.534   .     S
C77    N13     1.496   .     S
C78    C91     1.558   .     S
C78    C86     1.558   .     S
C78    N14     1.496   .     S
C79    C95     1.558   .     S
C79    C82     1.558   .     S
C79    N15     1.496   .     S
C80    C93     1.558   .     S
C80    C84     1.558   .     S
C80    C120    1.534   .     S
C80    N16     1.496   .     S
C97    H33     1.085   .     S
C98    H34     1.085   .     S
C99    H35     1.085   .     S
C100   H36     1.085   .     S
C101   H37     1.085   .     S
C102   H38     1.085   .     S
C103   H39     1.085   .     S
C104   H40     1.085   .     S
C105   H41     1.085   .     S
C106   H42     1.085   .     S
C107   H43     1.085   .     S
C108   H44     1.085   .     S
C109   H45     1.085   .     S
C110   H46     1.085   .     S
C111   H47     1.085   .     S
C112   H48     1.085   .     S
C113   H49     1.109   .     S
C113   H52     1.109   .     S
C114   H51     1.109   .     S
C114   H50     1.109   .     S
C115   H53     1.109   .     S
C115   H64     1.109   .     S
C116   H63     1.109   .     S
C117   H55     1.109   .     S
C117   H58     1.109   .     S
C118   H57     1.109   .     S
C118   H56     1.109   .     S
C119   H62     1.109   .     S
C120   H60     1.109   .     S
C120   H61     1.109   .     S
H49    H52     0.707   .     S
H50    H51     0.707   .     S
H53    H64     0.707   .     S
H55    H58     0.707   .     S
H56    H57     0.707   .     S
H60    H61     0.707   .     S
