data_PI-COF-4-2P
_audit_creation_date              2016-12-13
_audit_creation_method            'Materials Studio'
_symmetry_space_group_name_H-M    'P1'
_symmetry_Int_Tables_number       1
_symmetry_cell_setting            triclinic
loop_
_symmetry_equiv_pos_as_xyz
  x,y,z
_cell_length_a                    15.4200
_cell_length_b                    15.4200
_cell_length_c                    14.0600
_cell_angle_alpha                 90.0000
_cell_angle_beta                  90.0000
_cell_angle_gamma                 90.0000
loop_
_atom_site_label
_atom_site_type_symbol
_atom_site_fract_x
_atom_site_fract_y
_atom_site_fract_z
_atom_site_U_iso_or_equiv
_atom_site_adp_type
_atom_site_occupancy
C1     C     0.94063   0.05937   0.56351   0.00000  Uiso   1.00
C2     C     0.87726   0.12274   0.72002   0.00000  Uiso   1.00
C3     C     0.81295   0.18705   0.74753   0.00000  Uiso   1.00
C4     C     0.82448   0.17551   0.58744   0.00000  Uiso   1.00
C5     C     0.77971   0.22029   0.66397   0.00000  Uiso   1.00
C6     C     0.78459   0.21541   0.83702   0.00000  Uiso   1.00
O7     O     0.91953   0.08047   0.77660   0.00000  Uiso   1.00
O8     O     0.81130   0.18870   0.50324   0.00000  Uiso   1.00
N9     N     0.88359   0.11641   0.62229   0.00000  Uiso   1.00
H10    H     0.96111   0.15910   0.45319   0.00000  Uiso   1.00
H11    H     0.81061   0.18939   0.90252   0.00000  Uiso   1.00
C12    C     0.05937   0.94063   0.56351   0.00000  Uiso   1.00
C13    C     0.00000   0.88384   0.50000   0.00000  Uiso   1.00
C14    C     0.12274   0.87726   0.72002   0.00000  Uiso   1.00
C15    C     0.18705   0.81295   0.74753   0.00000  Uiso   1.00
C16    C     0.17552   0.82449   0.58744   0.00000  Uiso   1.00
C17    C     0.22029   0.77971   0.66397   0.00000  Uiso   1.00
C18    C     0.21541   0.78459   0.83702   0.00000  Uiso   1.00
O19    O     0.08047   0.91953   0.77660   0.00000  Uiso   1.00
O20    O     0.18870   0.81130   0.50324   0.00000  Uiso   1.00
N21    N     0.11641   0.88359   0.62229   0.00000  Uiso   1.00
H22    H     0.03889   0.84090   0.45319   0.00000  Uiso   1.00
H23    H     0.18939   0.81061   0.90252   0.00000  Uiso   1.00
C24    C     0.44063   0.44063   0.06351   0.00000  Uiso   1.00
C25    C     0.55937   0.55937   0.06351   0.00000  Uiso   1.00
C26    C     0.38384   0.50000   0.00000   0.00000  Uiso   1.00
C27    C     0.61616   0.50000   0.00000   0.00000  Uiso   1.00
C28    C     0.37726   0.37726   0.22002   0.00000  Uiso   1.00
C29    C     0.62274   0.62274   0.22002   0.00000  Uiso   1.00
C30    C     0.31295   0.31295   0.24753   0.00000  Uiso   1.00
C31    C     0.68705   0.68705   0.24753   0.00000  Uiso   1.00
C32    C     0.32449   0.32448   0.08744   0.00000  Uiso   1.00
C33    C     0.67551   0.67552   0.08744   0.00000  Uiso   1.00
C34    C     0.27971   0.27971   0.16397   0.00000  Uiso   1.00
C35    C     0.72029   0.72029   0.16397   0.00000  Uiso   1.00
C36    C     0.28459   0.28459   0.33702   0.00000  Uiso   1.00
C37    C     0.71541   0.71541   0.33702   0.00000  Uiso   1.00
O38    O     0.41953   0.41953   0.27660   0.00000  Uiso   1.00
O39    O     0.58047   0.58047   0.27660   0.00000  Uiso   1.00
O40    O     0.31130   0.31130   0.00324   0.00000  Uiso   1.00
O41    O     0.68870   0.68870   0.00324   0.00000  Uiso   1.00
N42    N     0.38359   0.38359   0.12229   0.00000  Uiso   1.00
N43    N     0.61641   0.61641   0.12229   0.00000  Uiso   1.00
H44    H     0.34090   0.53889   0.04681   0.00000  Uiso   1.00
H45    H     0.65910   0.46111   0.04681   0.00000  Uiso   1.00
H46    H     0.31061   0.31061   0.40252   0.00000  Uiso   1.00
H47    H     0.68939   0.68939   0.40252   0.00000  Uiso   1.00
H48    H     0.04172   0.04172   0.67075   0.00000  Uiso   1.00
H49    H     0.95828   0.95828   0.67075   0.00000  Uiso   1.00
C50    C     0.50000   0.50000   0.12523   0.00000  Uiso   1.00
C51    C     0.55937   0.44063   0.93649   0.00000  Uiso   1.00
C52    C     0.44063   0.55937   0.93649   0.00000  Uiso   1.00
C53    C     0.62274   0.37726   0.77998   0.00000  Uiso   1.00
C54    C     0.37726   0.62274   0.77998   0.00000  Uiso   1.00
C55    C     0.68705   0.31295   0.75247   0.00000  Uiso   1.00
C56    C     0.31295   0.68705   0.75247   0.00000  Uiso   1.00
C57    C     0.67552   0.32449   0.91256   0.00000  Uiso   1.00
C58    C     0.32448   0.67551   0.91256   0.00000  Uiso   1.00
C59    C     0.72029   0.27971   0.83603   0.00000  Uiso   1.00
C60    C     0.27971   0.72029   0.83603   0.00000  Uiso   1.00
C61    C     0.71541   0.28459   0.66298   0.00000  Uiso   1.00
C62    C     0.28459   0.71541   0.66298   0.00000  Uiso   1.00
O63    O     0.58047   0.41953   0.72340   0.00000  Uiso   1.00
O64    O     0.41953   0.58047   0.72340   0.00000  Uiso   1.00
O65    O     0.68870   0.31130   0.99676   0.00000  Uiso   1.00
O66    O     0.31130   0.68870   0.99676   0.00000  Uiso   1.00
N67    N     0.61641   0.38359   0.87771   0.00000  Uiso   1.00
N68    N     0.38359   0.61641   0.87771   0.00000  Uiso   1.00
H69    H     0.46111   0.34090   0.95319   0.00000  Uiso   1.00
H70    H     0.53889   0.65910   0.95319   0.00000  Uiso   1.00
H71    H     0.68939   0.31061   0.59748   0.00000  Uiso   1.00
H72    H     0.31061   0.68939   0.59748   0.00000  Uiso   1.00
H73    H     0.95828   0.04172   0.32925   0.00000  Uiso   1.00
H74    H     0.04172   0.95828   0.32925   0.00000  Uiso   1.00
C75    C     0.50000   0.50000   0.87477   0.00000  Uiso   1.00
C76    C     0.05937   0.05937   0.43649   0.00000  Uiso   1.00
C77    C     0.11616   0.00000   0.50000   0.00000  Uiso   1.00
C78    C     0.12274   0.12274   0.27998   0.00000  Uiso   1.00
C79    C     0.18705   0.18705   0.25247   0.00000  Uiso   1.00
C80    C     0.17551   0.17552   0.41256   0.00000  Uiso   1.00
C81    C     0.22029   0.22029   0.33603   0.00000  Uiso   1.00
C82    C     0.21541   0.21541   0.16298   0.00000  Uiso   1.00
O83    O     0.08047   0.08047   0.22340   0.00000  Uiso   1.00
O84    O     0.18870   0.18870   0.49676   0.00000  Uiso   1.00
N85    N     0.11641   0.11641   0.37771   0.00000  Uiso   1.00
H86    H     0.15910   0.03889   0.54681   0.00000  Uiso   1.00
H87    H     0.18939   0.18939   0.09748   0.00000  Uiso   1.00
C88    C     0.00000   0.00000   0.37477   0.00000  Uiso   1.00
C89    C     0.94063   0.94063   0.43649   0.00000  Uiso   1.00
C90    C     0.87726   0.87726   0.27998   0.00000  Uiso   1.00
C91    C     0.81295   0.81295   0.25247   0.00000  Uiso   1.00
C92    C     0.82449   0.82448   0.41256   0.00000  Uiso   1.00
C93    C     0.77971   0.77971   0.33603   0.00000  Uiso   1.00
C94    C     0.78459   0.78459   0.16298   0.00000  Uiso   1.00
O95    O     0.91953   0.91953   0.22340   0.00000  Uiso   1.00
O96    O     0.81130   0.81130   0.49676   0.00000  Uiso   1.00
N97    N     0.88359   0.88359   0.37771   0.00000  Uiso   1.00
H98    H     0.84090   0.96111   0.54681   0.00000  Uiso   1.00
H99    H     0.81061   0.81061   0.09748   0.00000  Uiso   1.00
C100   C     0.00000   0.11616   0.50000   0.00000  Uiso   1.00
H101   H     0.03889   0.15910   0.54681   0.00000  Uiso   1.00
C102   C     0.00000   0.00000   0.62523   0.00000  Uiso   1.00
C103   C     0.50000   0.38384   0.00000   0.00000  Uiso   1.00
C104   C     0.50000   0.61616   0.00000   0.00000  Uiso   1.00
H105   H     0.53889   0.34090   0.04681   0.00000  Uiso   1.00
H106   H     0.46111   0.65910   0.04681   0.00000  Uiso   1.00
C107   C     0.88384   0.00000   0.50000   0.00000  Uiso   1.00
H108   H     0.84090   0.03889   0.45319   0.00000  Uiso   1.00
H109   H     0.34090   0.46111   0.95319   0.00000  Uiso   1.00
H110   H     0.65910   0.53889   0.95319   0.00000  Uiso   1.00
H111   H     0.96111   0.84090   0.54681   0.00000  Uiso   1.00
H112   H     0.15910   0.96111   0.45319   0.00000  Uiso   1.00
H113   H     0.54172   0.45828   0.17075   0.00000  Uiso   1.00
H114   H     0.45828   0.54172   0.17075   0.00000  Uiso   1.00
H115   H     0.45828   0.45828   0.82925   0.00000  Uiso   1.00
H116   H     0.54172   0.54172   0.82925   0.00000  Uiso   1.00
loop_
_geom_bond_atom_site_label_1
_geom_bond_atom_site_label_2
_geom_bond_distance
_geom_bond_site_symmetry_2
_ccdc_geom_bond_type
C1     N9      1.493   .     S
C1     C107    1.550   .     S
C2     C3      1.455   .     S
C2     N9      1.381   .     S
C2     O7      1.218   .     S
C3     C5      1.380   .     S
C3     C6      1.402   .     S
C4     N9      1.379   .     S
C4     O8      1.218   .     S
C4     C5      1.453   .     S
C5     C61     1.402   .     S
C6     C59     1.402   .     S
C6     H11     1.082   .     S
C12    N21     1.493   .     S
C12    C13     1.550   .     S
C13    H22     1.110   .     S
C14    C15     1.455   .     S
C14    N21     1.381   .     S
C14    O19     1.218   .     S
C15    C17     1.380   .     S
C15    C18     1.402   .     S
C16    N21     1.379   .     S
C16    O20     1.218   .     S
C16    C17     1.453   .     S
C17    C62     1.402   .     S
C18    C60     1.402   .     S
C18    H23     1.082   .     S
C24    N42     1.493   .     S
C24    C103    1.550   .     S
C24    C26     1.550   .     S
C24    C50     1.559   .     S
C25    C50     1.559   .     S
C25    C27     1.550   .     S
C25    C104    1.550   .     S
C25    N43     1.493   .     S
C26    H44     1.110   .     S
C27    H45     1.110   .     S
C28    C30     1.455   .     S
C28    N42     1.381   .     S
C28    O38     1.218   .     S
C29    C31     1.455   .     S
C29    N43     1.381   .     S
C29    O39     1.218   .     S
C30    C34     1.380   .     S
C30    C36     1.402   .     S
C31    C35     1.380   .     S
C31    C37     1.402   .     S
C32    O40     1.218   .     S
C32    N42     1.379   .     S
C32    C34     1.453   .     S
C33    O41     1.218   .     S
C33    N43     1.379   .     S
C33    C35     1.453   .     S
C34    C82     1.402   .     S
C35    C94     1.402   .     S
C36    C81     1.402   .     S
C36    H46     1.082   .     S
C37    C93     1.402   .     S
C37    H47     1.082   .     S
H48    C102    1.112   .     S
C50    H114    1.112   .     S
C50    H113    1.112   .     S
C51    C75     1.559   .     S
C51    N67     1.493   .     S
C52    N68     1.493   .     S
C52    C75     1.559   .     S
C53    N67     1.381   .     S
C53    O63     1.218   .     S
C53    C55     1.455   .     S
C54    N68     1.381   .     S
C54    O64     1.218   .     S
C54    C56     1.455   .     S
C55    C61     1.402   .     S
C55    C59     1.380   .     S
C56    C62     1.402   .     S
C56    C60     1.380   .     S
C57    O65     1.218   .     S
C57    N67     1.379   .     S
C57    C59     1.453   .     S
C58    O66     1.218   .     S
C58    C60     1.453   .     S
C58    N68     1.379   .     S
C61    H71     1.082   .     S
C62    H72     1.082   .     S
C75    H116    1.112   .     S
C75    H115    1.112   .     S
C76    C77     1.550   .     S
C76    C100    1.550   .     S
C76    N85     1.493   .     S
C76    C88     1.559   .     S
C77    H86     1.110   .     S
C78    C79     1.455   .     S
C78    N85     1.381   .     S
C78    O83     1.218   .     S
C79    C81     1.380   .     S
C79    C82     1.402   .     S
C80    O84     1.218   .     S
C80    C81     1.453   .     S
C80    N85     1.379   .     S
C82    H87     1.082   .     S
C89    N97     1.493   .     S
C90    C91     1.455   .     S
C90    N97     1.381   .     S
C90    O95     1.218   .     S
C91    C93     1.380   .     S
C91    C94     1.402   .     S
C92    O96     1.218   .     S
C92    N97     1.379   .     S
C92    C93     1.453   .     S
C94    H99     1.082   .     S
C100   H101    1.110   .     S
C103   H105    1.110   .     S
C104   H106    1.110   .     S
C107   H108    1.110   .     S
