data_PI-COF-5-2P
_audit_creation_date              2016-12-13
_audit_creation_method            'Materials Studio'
_symmetry_space_group_name_H-M    'P1'
_symmetry_Int_Tables_number       1
_symmetry_cell_setting            triclinic
loop_
_symmetry_equiv_pos_as_xyz
  x,y,z
_cell_length_a                    20.3900
_cell_length_b                    20.3900
_cell_length_c                    23.0900
_cell_angle_alpha                 90.0000
_cell_angle_beta                  90.0000
_cell_angle_gamma                 90.0000
loop_
_atom_site_label
_atom_site_type_symbol
_atom_site_fract_x
_atom_site_fract_y
_atom_site_fract_z
_atom_site_U_iso_or_equiv
_atom_site_adp_type
_atom_site_occupancy
C1     C     0.88117   0.11929   0.61777   0.00000  Uiso   1.00
C2     C     0.79885   0.13555   0.69825   0.00000  Uiso   1.00
C3     C     0.76879   0.18978   0.72948   0.00000  Uiso   1.00
C4     C     0.84056   0.22551   0.66116   0.00000  Uiso   1.00
C5     C     0.79510   0.24653   0.70608   0.00000  Uiso   1.00
C6     C     0.72256   0.19081   0.77441   0.00000  Uiso   1.00
C7     C     0.12220   0.94940   0.61865   0.00000  Uiso   1.00
C8     C     0.04253   0.95708   0.54014   0.00000  Uiso   1.00
C9     C     0.08453   0.98701   0.58063   0.00000  Uiso   1.00
C10    C     0.07642   0.85070   0.57795   0.00000  Uiso   1.00
C11    C     0.03870   0.88824   0.53991   0.00000  Uiso   1.00
O1     O     0.78738   0.07777   0.70721   0.00000  Uiso   1.00
O2     O     0.87298   0.26241   0.63107   0.00000  Uiso   1.00
N1     N     0.84204   0.15827   0.65719   0.00000  Uiso   1.00
H1     H     0.70224   0.14284   0.79232   0.00000  Uiso   1.00
H2     H     0.15601   0.97520   0.65069   0.00000  Uiso   1.00
H3     H     0.08752   0.04281   0.58211   0.00000  Uiso   1.00
H4     H     0.07242   0.79497   0.57637   0.00000  Uiso   1.00
H5     H     0.00417   0.86313   0.50804   0.00000  Uiso   1.00
C12    C     0.11883   0.88071   0.61777   0.00000  Uiso   1.00
C13    C     0.20115   0.86445   0.69825   0.00000  Uiso   1.00
C14    C     0.23121   0.81022   0.72948   0.00000  Uiso   1.00
C15    C     0.15944   0.77449   0.66116   0.00000  Uiso   1.00
C16    C     0.20490   0.75347   0.70608   0.00000  Uiso   1.00
C17    C     0.27744   0.80919   0.77441   0.00000  Uiso   1.00
C18    C     0.87780   0.05060   0.61865   0.00000  Uiso   1.00
C19    C     0.95747   0.04292   0.54014   0.00000  Uiso   1.00
C20    C     0.91547   0.01299   0.58063   0.00000  Uiso   1.00
C21    C     0.92358   0.14930   0.57795   0.00000  Uiso   1.00
C22    C     0.96130   0.11176   0.53991   0.00000  Uiso   1.00
O3     O     0.21262   0.92223   0.70721   0.00000  Uiso   1.00
O4     O     0.12702   0.73759   0.63107   0.00000  Uiso   1.00
N2     N     0.15796   0.84173   0.65719   0.00000  Uiso   1.00
H6     H     0.29776   0.85716   0.79232   0.00000  Uiso   1.00
H7     H     0.84399   0.02480   0.65069   0.00000  Uiso   1.00
H8     H     0.91248   0.95719   0.58211   0.00000  Uiso   1.00
H9     H     0.92758   0.20503   0.57637   0.00000  Uiso   1.00
H10    H     0.99583   0.13687   0.50804   0.00000  Uiso   1.00
C23    C     0.38071   0.38117   0.11777   0.00000  Uiso   1.00
C24    C     0.36445   0.29885   0.19825   0.00000  Uiso   1.00
C25    C     0.31022   0.26879   0.22948   0.00000  Uiso   1.00
C26    C     0.27449   0.34056   0.16116   0.00000  Uiso   1.00
C27    C     0.25347   0.29510   0.20608   0.00000  Uiso   1.00
C28    C     0.30919   0.22256   0.27441   0.00000  Uiso   1.00
C29    C     0.55060   0.62220   0.11865   0.00000  Uiso   1.00
C30    C     0.54292   0.54253   0.04014   0.00000  Uiso   1.00
C31    C     0.51299   0.58453   0.08063   0.00000  Uiso   1.00
C32    C     0.64930   0.57642   0.07795   0.00000  Uiso   1.00
C33    C     0.61176   0.53870   0.03991   0.00000  Uiso   1.00
O5     O     0.42223   0.28738   0.20721   0.00000  Uiso   1.00
O6     O     0.23759   0.37298   0.13107   0.00000  Uiso   1.00
N3     N     0.34173   0.34204   0.15719   0.00000  Uiso   1.00
H11    H     0.35716   0.20224   0.29232   0.00000  Uiso   1.00
H12    H     0.52480   0.65601   0.15069   0.00000  Uiso   1.00
H13    H     0.45719   0.58752   0.08211   0.00000  Uiso   1.00
H14    H     0.70503   0.57242   0.07637   0.00000  Uiso   1.00
H15    H     0.63687   0.50417   0.00804   0.00000  Uiso   1.00
C34    C     0.61929   0.61883   0.11777   0.00000  Uiso   1.00
C35    C     0.63555   0.70115   0.19825   0.00000  Uiso   1.00
C36    C     0.68978   0.73121   0.22948   0.00000  Uiso   1.00
C37    C     0.72551   0.65944   0.16116   0.00000  Uiso   1.00
C38    C     0.74653   0.70490   0.20608   0.00000  Uiso   1.00
C39    C     0.69081   0.77744   0.27441   0.00000  Uiso   1.00
C40    C     0.44940   0.37780   0.11865   0.00000  Uiso   1.00
C41    C     0.45708   0.45747   0.04014   0.00000  Uiso   1.00
C42    C     0.48701   0.41547   0.08063   0.00000  Uiso   1.00
C43    C     0.35070   0.42358   0.07795   0.00000  Uiso   1.00
C44    C     0.38824   0.46130   0.03991   0.00000  Uiso   1.00
O7     O     0.57777   0.71262   0.20721   0.00000  Uiso   1.00
O8     O     0.76241   0.62702   0.13107   0.00000  Uiso   1.00
N4     N     0.65827   0.65796   0.15719   0.00000  Uiso   1.00
H16    H     0.64284   0.79776   0.29232   0.00000  Uiso   1.00
H17    H     0.47520   0.34399   0.15069   0.00000  Uiso   1.00
H18    H     0.54281   0.41248   0.08211   0.00000  Uiso   1.00
H19    H     0.29497   0.42758   0.07637   0.00000  Uiso   1.00
H20    H     0.36313   0.49583   0.00804   0.00000  Uiso   1.00
C45    C     0.61883   0.38071   0.88223   0.00000  Uiso   1.00
C46    C     0.70115   0.36445   0.80175   0.00000  Uiso   1.00
C47    C     0.73121   0.31022   0.77052   0.00000  Uiso   1.00
C48    C     0.65944   0.27449   0.83884   0.00000  Uiso   1.00
C49    C     0.70490   0.25347   0.79392   0.00000  Uiso   1.00
C50    C     0.77744   0.30919   0.72559   0.00000  Uiso   1.00
C51    C     0.37780   0.55060   0.88135   0.00000  Uiso   1.00
C52    C     0.45747   0.54292   0.95986   0.00000  Uiso   1.00
C53    C     0.41547   0.51299   0.91937   0.00000  Uiso   1.00
C54    C     0.42358   0.64930   0.92205   0.00000  Uiso   1.00
C55    C     0.46130   0.61176   0.96009   0.00000  Uiso   1.00
O9     O     0.71262   0.42223   0.79279   0.00000  Uiso   1.00
O10    O     0.62702   0.23759   0.86893   0.00000  Uiso   1.00
N5     N     0.65796   0.34173   0.84281   0.00000  Uiso   1.00
H21    H     0.79776   0.35716   0.70768   0.00000  Uiso   1.00
H22    H     0.34399   0.52480   0.84931   0.00000  Uiso   1.00
H23    H     0.41248   0.45719   0.91789   0.00000  Uiso   1.00
H24    H     0.42758   0.70503   0.92363   0.00000  Uiso   1.00
H25    H     0.49583   0.63687   0.99196   0.00000  Uiso   1.00
C56    C     0.38117   0.61929   0.88223   0.00000  Uiso   1.00
C57    C     0.29885   0.63555   0.80175   0.00000  Uiso   1.00
C58    C     0.26879   0.68978   0.77052   0.00000  Uiso   1.00
C59    C     0.34056   0.72551   0.83884   0.00000  Uiso   1.00
C60    C     0.29510   0.74653   0.79392   0.00000  Uiso   1.00
C61    C     0.22256   0.69081   0.72559   0.00000  Uiso   1.00
C62    C     0.62220   0.44940   0.88135   0.00000  Uiso   1.00
C63    C     0.54253   0.45708   0.95986   0.00000  Uiso   1.00
C64    C     0.58453   0.48701   0.91937   0.00000  Uiso   1.00
C65    C     0.57642   0.35070   0.92205   0.00000  Uiso   1.00
C66    C     0.53870   0.38824   0.96009   0.00000  Uiso   1.00
O11    O     0.28738   0.57777   0.79279   0.00000  Uiso   1.00
O12    O     0.37298   0.76241   0.86893   0.00000  Uiso   1.00
N6     N     0.34204   0.65827   0.84281   0.00000  Uiso   1.00
H26    H     0.20224   0.64284   0.70768   0.00000  Uiso   1.00
H27    H     0.65601   0.47520   0.84931   0.00000  Uiso   1.00
H28    H     0.58752   0.54281   0.91789   0.00000  Uiso   1.00
H29    H     0.57242   0.29497   0.92363   0.00000  Uiso   1.00
H30    H     0.50417   0.36313   0.99196   0.00000  Uiso   1.00
C67    C     0.11929   0.11883   0.38223   0.00000  Uiso   1.00
C68    C     0.13555   0.20115   0.30175   0.00000  Uiso   1.00
C69    C     0.18978   0.23121   0.27052   0.00000  Uiso   1.00
C70    C     0.22551   0.15944   0.33884   0.00000  Uiso   1.00
C71    C     0.24653   0.20490   0.29392   0.00000  Uiso   1.00
C72    C     0.19081   0.27744   0.22559   0.00000  Uiso   1.00
C73    C     0.94940   0.87780   0.38135   0.00000  Uiso   1.00
C74    C     0.95708   0.95747   0.45986   0.00000  Uiso   1.00
C75    C     0.98701   0.91547   0.41937   0.00000  Uiso   1.00
C76    C     0.85070   0.92358   0.42205   0.00000  Uiso   1.00
C77    C     0.88824   0.96130   0.46009   0.00000  Uiso   1.00
O13    O     0.07777   0.21262   0.29279   0.00000  Uiso   1.00
O14    O     0.26241   0.12702   0.36893   0.00000  Uiso   1.00
N7     N     0.15827   0.15796   0.34281   0.00000  Uiso   1.00
H31    H     0.14284   0.29776   0.20768   0.00000  Uiso   1.00
H32    H     0.97520   0.84399   0.34931   0.00000  Uiso   1.00
H33    H     0.04281   0.91248   0.41789   0.00000  Uiso   1.00
H34    H     0.79497   0.92758   0.42363   0.00000  Uiso   1.00
H35    H     0.86313   0.99583   0.49196   0.00000  Uiso   1.00
C78    C     0.88071   0.88117   0.38223   0.00000  Uiso   1.00
C79    C     0.86445   0.79885   0.30175   0.00000  Uiso   1.00
C80    C     0.81022   0.76879   0.27052   0.00000  Uiso   1.00
C81    C     0.77449   0.84056   0.33884   0.00000  Uiso   1.00
C82    C     0.75347   0.79510   0.29392   0.00000  Uiso   1.00
C83    C     0.80919   0.72256   0.22559   0.00000  Uiso   1.00
C84    C     0.05060   0.12220   0.38135   0.00000  Uiso   1.00
C85    C     0.04292   0.04253   0.45986   0.00000  Uiso   1.00
C86    C     0.01299   0.08453   0.41937   0.00000  Uiso   1.00
C87    C     0.14930   0.07642   0.42205   0.00000  Uiso   1.00
C88    C     0.11176   0.03870   0.46009   0.00000  Uiso   1.00
O15    O     0.92223   0.78738   0.29279   0.00000  Uiso   1.00
O16    O     0.73759   0.87298   0.36893   0.00000  Uiso   1.00
N8     N     0.84173   0.84204   0.34281   0.00000  Uiso   1.00
H36    H     0.85716   0.70224   0.20768   0.00000  Uiso   1.00
H37    H     0.02480   0.15601   0.34931   0.00000  Uiso   1.00
H38    H     0.95719   0.08752   0.41789   0.00000  Uiso   1.00
H39    H     0.20503   0.07242   0.42363   0.00000  Uiso   1.00
H40    H     0.13687   0.00417   0.49196   0.00000  Uiso   1.00
C89    C     0.00000   0.00000   0.50000   0.00000  Uiso   1.00
C90    C     0.50000   0.50000   0.00000   0.00000  Uiso   1.00
loop_
_geom_bond_atom_site_label_1
_geom_bond_atom_site_label_2
_geom_bond_distance
_geom_bond_site_symmetry_2
_ccdc_geom_bond_type
C1     N1      1.448   .     S
C1     C18     1.402   .     S
C1     C21     1.403   .     S
C2     C3      1.455   .     S
C2     O1      1.219   .     S
C2     N1      1.374   .     S
C3     C5      1.385   .     S
C3     C6      1.402   .     S
C4     O2      1.219   .     S
C4     N1      1.374   .     S
C4     C5      1.456   .     S
C5     C50     1.402   .     S
C6     C49     1.402   .     S
C6     H1      1.140   .     S
C7     C12     1.402   .     S
C7     H2      1.140   .     S
C7     C9      1.396   .     S
C8     C9      1.407   .     S
C8     C11     1.406   .     S
C10    H4      1.140   .     S
C10    C11     1.396   .     S
C10    C12     1.403   .     S
C11    H5      1.140   .     S
C12    N2      1.448   .     S
C13    C14     1.455   .     S
C13    O3      1.219   .     S
C13    N2      1.374   .     S
C14    C16     1.385   .     S
C14    C17     1.402   .     S
C15    O4      1.219   .     S
C15    N2      1.374   .     S
C15    C16     1.456   .     S
C16    C61     1.402   .     S
C17    H6      1.140   .     S
C17    C60     1.402   .     S
C18    H7      1.140   .     S
C18    C20     1.396   .     S
C19    C20     1.407   .     S
C19    C22     1.406   .     S
C21    C22     1.396   .     S
C21    H9      1.140   .     S
C22    H10     1.140   .     S
C23    C43     1.403   .     S
C23    C40     1.402   .     S
C23    N3      1.448   .     S
C24    O5      1.219   .     S
C24    C25     1.455   .     S
C24    N3      1.374   .     S
C25    C27     1.385   .     S
C25    C28     1.402   .     S
C26    N3      1.374   .     S
C26    C27     1.456   .     S
C26    O6      1.219   .     S
C27    C72     1.402   .     S
C28    C71     1.402   .     S
C28    H11     1.140   .     S
C29    H12     1.140   .     S
C29    C34     1.402   .     S
C29    C31     1.396   .     S
C30    C33     1.406   .     S
C30    C90     1.542   .     S
C30    C31     1.407   .     S
C31    H13     1.140   .     S
C32    C34     1.403   .     S
C32    C33     1.396   .     S
C32    H14     1.140   .     S
C33    H15     1.140   .     S
C34    N4      1.448   .     S
C35    C36     1.455   .     S
C35    O7      1.219   .     S
C35    N4      1.374   .     S
C36    C38     1.385   .     S
C36    C39     1.402   .     S
C37    N4      1.374   .     S
C37    C38     1.456   .     S
C37    O8      1.219   .     S
C38    C83     1.402   .     S
C39    H16     1.140   .     S
C39    C82     1.402   .     S
C40    C42     1.396   .     S
C40    H17     1.140   .     S
C41    C90     1.542   .     S
C41    C44     1.406   .     S
C41    C42     1.407   .     S
C42    H18     1.140   .     S
C43    C44     1.396   .     S
C43    H19     1.140   .     S
C44    H20     1.140   .     S
C45    C62     1.402   .     S
C45    N5      1.448   .     S
C45    C65     1.403   .     S
C46    O9      1.219   .     S
C46    C47     1.455   .     S
C46    N5      1.374   .     S
C47    C49     1.385   .     S
C47    C50     1.402   .     S
C48    N5      1.374   .     S
C48    C49     1.456   .     S
C48    O10     1.219   .     S
C50    H21     1.140   .     S
C51    H22     1.140   .     S
C51    C56     1.402   .     S
C51    C53     1.396   .     S
C52    C55     1.406   .     S
C52    C53     1.407   .     S
C53    H23     1.140   .     S
C54    C55     1.396   .     S
C54    H24     1.140   .     S
C54    C56     1.403   .     S
C55    H25     1.140   .     S
C56    N6      1.448   .     S
C57    C58     1.455   .     S
C57    N6      1.374   .     S
C57    O11     1.219   .     S
C58    C60     1.385   .     S
C58    C61     1.402   .     S
C59    C60     1.456   .     S
C59    N6      1.374   .     S
C59    O12     1.219   .     S
C61    H26     1.140   .     S
C62    H27     1.140   .     S
C62    C64     1.396   .     S
C63    C66     1.406   .     S
C63    C64     1.407   .     S
C64    H28     1.140   .     S
C65    C66     1.396   .     S
C65    H29     1.140   .     S
C66    H30     1.140   .     S
C67    N7      1.448   .     S
C67    C84     1.402   .     S
C67    C87     1.403   .     S
C68    O13     1.219   .     S
C68    C69     1.455   .     S
C68    N7      1.374   .     S
C69    C71     1.385   .     S
C69    C72     1.402   .     S
C70    N7      1.374   .     S
C70    O14     1.219   .     S
C70    C71     1.456   .     S
C72    H31     1.140   .     S
C73    C78     1.402   .     S
C73    H32     1.140   .     S
C73    C75     1.396   .     S
C74    C77     1.406   .     S
C74    C75     1.407   .     S
C76    H34     1.140   .     S
C76    C77     1.396   .     S
C76    C78     1.403   .     S
C77    H35     1.140   .     S
C78    N8      1.448   .     S
C79    O15     1.219   .     S
C79    C80     1.455   .     S
C79    N8      1.374   .     S
C80    C82     1.385   .     S
C80    C83     1.402   .     S
C81    N8      1.374   .     S
C81    O16     1.219   .     S
C81    C82     1.456   .     S
C83    H36     1.140   .     S
C84    H37     1.140   .     S
C84    C86     1.396   .     S
C85    C86     1.407   .     S
C85    C88     1.406   .     S
C85    C89     1.542   .     S
C87    C88     1.396   .     S
C87    H39     1.140   .     S
C88    H40     1.140   .     S
