data_POR-COF
_audit_creation_date              2016-12-13
_audit_creation_method            'Materials Studio'
_symmetry_space_group_name_H-M    'P1'
_symmetry_Int_Tables_number       1
_symmetry_cell_setting            triclinic
loop_
_symmetry_equiv_pos_as_xyz
  x,y,z
_cell_length_a                    24.6883
_cell_length_b                    28.4707
_cell_length_c                    6.9355
_cell_angle_alpha                 90.0000
_cell_angle_beta                  90.0000
_cell_angle_gamma                 90.0000
loop_
_atom_site_label
_atom_site_type_symbol
_atom_site_fract_x
_atom_site_fract_y
_atom_site_fract_z
_atom_site_U_iso_or_equiv
_atom_site_adp_type
_atom_site_occupancy
N1     N     0.75690   0.22762   0.50000   0.00000  Uiso   1.00
O2     O     0.80359   0.21504   0.50000   0.00000  Uiso   1.00
N3     N     0.24310   0.77238   0.50000   0.00000  Uiso   1.00
O4     O     0.19641   0.78496   0.50000   0.00000  Uiso   1.00
N5     N     0.24310   0.22762   0.50000   0.00000  Uiso   1.00
O6     O     0.19641   0.21504   0.50000   0.00000  Uiso   1.00
N7     N     0.75690   0.77238   0.50000   0.00000  Uiso   1.00
O8     O     0.80359   0.78496   0.50000   0.00000  Uiso   1.00
N9     N     0.50000   0.07448   0.50000   0.00000  Uiso   1.00
N10    N     0.50000   0.92552   0.50000   0.00000  Uiso   1.00
H11    H     0.50000   0.04049   0.50000   0.00000  Uiso   1.00
H12    H     0.50000   0.95951   0.50000   0.00000  Uiso   1.00
C13    C     0.45472   0.10119   0.50000   0.00000  Uiso   1.00
C14    C     0.45472   0.89881   0.50000   0.00000  Uiso   1.00
C15    C     0.47213   0.14788   0.50000   0.00000  Uiso   1.00
C16    C     0.47213   0.85212   0.50000   0.00000  Uiso   1.00
H17    H     0.44854   0.17739   0.50000   0.00000  Uiso   1.00
H18    H     0.44854   0.82261   0.50000   0.00000  Uiso   1.00
N19    N     0.91449   0.50000   0.50000   0.00000  Uiso   1.00
C20    C     0.88307   0.53897   0.50000   0.00000  Uiso   1.00
C21    C     0.88307   0.46103   0.50000   0.00000  Uiso   1.00
C22    C     0.82916   0.52413   0.50000   0.00000  Uiso   1.00
C23    C     0.82916   0.47587   0.50000   0.00000  Uiso   1.00
H24    H     0.79519   0.54464   0.50000   0.00000  Uiso   1.00
H25    H     0.79519   0.45536   0.50000   0.00000  Uiso   1.00
C26    C     0.40004   0.08640   0.50000   0.00000  Uiso   1.00
C27    C     0.40004   0.91360   0.50000   0.00000  Uiso   1.00
C28    C     0.35973   0.12149   0.50000   0.00000  Uiso   1.00
C29    C     0.35973   0.87851   0.50000   0.00000  Uiso   1.00
C30    C     0.33955   0.13925   0.32389   0.00000  Uiso   1.00
C31    C     0.33955   0.86075   0.67611   0.00000  Uiso   1.00
C32    C     0.33955   0.13925   0.67611   0.00000  Uiso   1.00
C33    C     0.33955   0.86075   0.32389   0.00000  Uiso   1.00
H34    H     0.35362   0.12666   0.19507   0.00000  Uiso   1.00
H35    H     0.35362   0.87334   0.80493   0.00000  Uiso   1.00
H36    H     0.35362   0.12666   0.80493   0.00000  Uiso   1.00
H37    H     0.35362   0.87334   0.19507   0.00000  Uiso   1.00
C38    C     0.29993   0.17470   0.32402   0.00000  Uiso   1.00
C39    C     0.29993   0.82530   0.67598   0.00000  Uiso   1.00
C40    C     0.29993   0.17470   0.67598   0.00000  Uiso   1.00
C41    C     0.29993   0.82530   0.32402   0.00000  Uiso   1.00
H42    H     0.28575   0.18749   0.19578   0.00000  Uiso   1.00
H43    H     0.28575   0.81251   0.80422   0.00000  Uiso   1.00
H44    H     0.28575   0.18749   0.80422   0.00000  Uiso   1.00
H45    H     0.28575   0.81251   0.19578   0.00000  Uiso   1.00
C46    C     0.28016   0.19265   0.50000   0.00000  Uiso   1.00
C47    C     0.28016   0.80735   0.50000   0.00000  Uiso   1.00
C48    C     0.54528   0.89881   0.50000   0.00000  Uiso   1.00
C49    C     0.54528   0.10119   0.50000   0.00000  Uiso   1.00
C50    C     0.52787   0.85212   0.50000   0.00000  Uiso   1.00
C51    C     0.52787   0.14788   0.50000   0.00000  Uiso   1.00
H52    H     0.55146   0.82261   0.50000   0.00000  Uiso   1.00
H53    H     0.55146   0.17739   0.50000   0.00000  Uiso   1.00
N54    N     0.08551   0.50000   0.50000   0.00000  Uiso   1.00
C55    C     0.11693   0.46103   0.50000   0.00000  Uiso   1.00
C56    C     0.11693   0.53897   0.50000   0.00000  Uiso   1.00
C57    C     0.17084   0.47587   0.50000   0.00000  Uiso   1.00
C58    C     0.17084   0.52413   0.50000   0.00000  Uiso   1.00
H59    H     0.20481   0.45536   0.50000   0.00000  Uiso   1.00
H60    H     0.20481   0.54464   0.50000   0.00000  Uiso   1.00
C61    C     0.59996   0.91360   0.50000   0.00000  Uiso   1.00
C62    C     0.59996   0.08640   0.50000   0.00000  Uiso   1.00
C63    C     0.64027   0.87851   0.50000   0.00000  Uiso   1.00
C64    C     0.64027   0.12149   0.50000   0.00000  Uiso   1.00
C65    C     0.66045   0.86075   0.32389   0.00000  Uiso   1.00
C66    C     0.66045   0.13925   0.67611   0.00000  Uiso   1.00
C67    C     0.66045   0.86075   0.67611   0.00000  Uiso   1.00
C68    C     0.66045   0.13925   0.32389   0.00000  Uiso   1.00
H69    H     0.64638   0.87334   0.19507   0.00000  Uiso   1.00
H70    H     0.64638   0.12666   0.80493   0.00000  Uiso   1.00
H71    H     0.64638   0.87334   0.80493   0.00000  Uiso   1.00
H72    H     0.64638   0.12666   0.19507   0.00000  Uiso   1.00
C73    C     0.70007   0.82530   0.32402   0.00000  Uiso   1.00
C74    C     0.70007   0.17470   0.67598   0.00000  Uiso   1.00
C75    C     0.70007   0.82530   0.67598   0.00000  Uiso   1.00
C76    C     0.70007   0.17470   0.32402   0.00000  Uiso   1.00
H77    H     0.71425   0.81251   0.19578   0.00000  Uiso   1.00
H78    H     0.71425   0.18749   0.80422   0.00000  Uiso   1.00
H79    H     0.71425   0.81251   0.80422   0.00000  Uiso   1.00
H80    H     0.71425   0.18749   0.19578   0.00000  Uiso   1.00
C81    C     0.71984   0.80735   0.50000   0.00000  Uiso   1.00
C82    C     0.71984   0.19265   0.50000   0.00000  Uiso   1.00
N83    N     0.25690   0.72762   0.50000   0.00000  Uiso   1.00
O84    O     0.30359   0.71504   0.50000   0.00000  Uiso   1.00
N85    N     0.00000   0.57448   0.50000   0.00000  Uiso   1.00
H86    H     0.00000   0.54049   0.50000   0.00000  Uiso   1.00
C87    C    -0.04528   0.60119   0.50000   0.00000  Uiso   1.00
C88    C    -0.02787   0.64788   0.50000   0.00000  Uiso   1.00
H89    H    -0.05146   0.67739   0.50000   0.00000  Uiso   1.00
C90    C    -0.09996   0.58640   0.50000   0.00000  Uiso   1.00
C91    C    -0.14027   0.62149   0.50000   0.00000  Uiso   1.00
C92    C    -0.16045   0.63925   0.32389   0.00000  Uiso   1.00
C93    C    -0.16045   0.63925   0.67611   0.00000  Uiso   1.00
H94    H    -0.14638   0.62666   0.19507   0.00000  Uiso   1.00
H95    H    -0.14638   0.62666   0.80493   0.00000  Uiso   1.00
C96    C    -0.20007   0.67470   0.32402   0.00000  Uiso   1.00
C97    C    -0.20007   0.67470   0.67598   0.00000  Uiso   1.00
H98    H    -0.21425   0.68749   0.19578   0.00000  Uiso   1.00
H99    H    -0.21425   0.68749   0.80422   0.00000  Uiso   1.00
C100   C    -0.21984   0.69265   0.50000   0.00000  Uiso   1.00
C101   C     0.04528   0.60119   0.50000   0.00000  Uiso   1.00
C102   C     0.02787   0.64788   0.50000   0.00000  Uiso   1.00
H103   H     0.05146   0.67739   0.50000   0.00000  Uiso   1.00
C104   C     0.09996   0.58640   0.50000   0.00000  Uiso   1.00
C105   C     0.14027   0.62149   0.50000   0.00000  Uiso   1.00
C106   C     0.16045   0.63925   0.67611   0.00000  Uiso   1.00
C107   C     0.16045   0.63925   0.32389   0.00000  Uiso   1.00
H108   H     0.14638   0.62666   0.80493   0.00000  Uiso   1.00
H109   H     0.14638   0.62666   0.19507   0.00000  Uiso   1.00
C110   C     0.20007   0.67470   0.67598   0.00000  Uiso   1.00
C111   C     0.20007   0.67470   0.32402   0.00000  Uiso   1.00
H112   H     0.21425   0.68749   0.80422   0.00000  Uiso   1.00
H113   H     0.21425   0.68749   0.19578   0.00000  Uiso   1.00
C114   C     0.21984   0.69265   0.50000   0.00000  Uiso   1.00
N115   N     0.74310   0.27238   0.50000   0.00000  Uiso   1.00
O116   O     0.69641   0.28496   0.50000   0.00000  Uiso   1.00
N117   N     0.58551   0.00000   0.50000   0.00000  Uiso   1.00
C118   C     0.61693  -0.03897   0.50000   0.00000  Uiso   1.00
C119   C     0.61693   0.03897   0.50000   0.00000  Uiso   1.00
C120   C     0.67084  -0.02413   0.50000   0.00000  Uiso   1.00
C121   C     0.67084   0.02413   0.50000   0.00000  Uiso   1.00
H122   H     0.70481  -0.04464   0.50000   0.00000  Uiso   1.00
H123   H     0.70481   0.04464   0.50000   0.00000  Uiso   1.00
N124   N     0.74310   0.72762   0.50000   0.00000  Uiso   1.00
O125   O     0.69641   0.71504   0.50000   0.00000  Uiso   1.00
N126   N     0.25690   0.27238   0.50000   0.00000  Uiso   1.00
O127   O     0.30359   0.28496   0.50000   0.00000  Uiso   1.00
N128   N     0.00000   0.42552   0.50000   0.00000  Uiso   1.00
H129   H     0.00000   0.45951   0.50000   0.00000  Uiso   1.00
C130   C     0.04528   0.39881   0.50000   0.00000  Uiso   1.00
C131   C     0.02787   0.35212   0.50000   0.00000  Uiso   1.00
H132   H     0.05146   0.32261   0.50000   0.00000  Uiso   1.00
C133   C     0.09996   0.41360   0.50000   0.00000  Uiso   1.00
C134   C     0.14027   0.37851   0.50000   0.00000  Uiso   1.00
C135   C     0.16045   0.36075   0.32389   0.00000  Uiso   1.00
C136   C     0.16045   0.36075   0.67611   0.00000  Uiso   1.00
H137   H     0.14638   0.37334   0.19507   0.00000  Uiso   1.00
H138   H     0.14638   0.37334   0.80493   0.00000  Uiso   1.00
C139   C     0.20007   0.32530   0.32402   0.00000  Uiso   1.00
C140   C     0.20007   0.32530   0.67598   0.00000  Uiso   1.00
H141   H     0.21425   0.31251   0.19578   0.00000  Uiso   1.00
H142   H     0.21425   0.31251   0.80422   0.00000  Uiso   1.00
C143   C     0.21984   0.30735   0.50000   0.00000  Uiso   1.00
C144   C    -0.04528   0.39881   0.50000   0.00000  Uiso   1.00
C145   C    -0.02787   0.35212   0.50000   0.00000  Uiso   1.00
H146   H    -0.05146   0.32261   0.50000   0.00000  Uiso   1.00
N147   N     0.41449   0.00000   0.50000   0.00000  Uiso   1.00
C148   C     0.38307   0.03897   0.50000   0.00000  Uiso   1.00
C149   C     0.38307  -0.03897   0.50000   0.00000  Uiso   1.00
C150   C     0.32916   0.02413   0.50000   0.00000  Uiso   1.00
C151   C     0.32916  -0.02413   0.50000   0.00000  Uiso   1.00
H152   H     0.29519   0.04464   0.50000   0.00000  Uiso   1.00
H153   H     0.29519  -0.04464   0.50000   0.00000  Uiso   1.00
C154   C    -0.09996   0.41360   0.50000   0.00000  Uiso   1.00
C155   C    -0.14027   0.37851   0.50000   0.00000  Uiso   1.00
C156   C    -0.16045   0.36075   0.67611   0.00000  Uiso   1.00
C157   C    -0.16045   0.36075   0.32389   0.00000  Uiso   1.00
H158   H    -0.14638   0.37334   0.80493   0.00000  Uiso   1.00
H159   H    -0.14638   0.37334   0.19507   0.00000  Uiso   1.00
C160   C    -0.20007   0.32530   0.67598   0.00000  Uiso   1.00
C161   C    -0.20007   0.32530   0.32402   0.00000  Uiso   1.00
H162   H    -0.21425   0.31251   0.80422   0.00000  Uiso   1.00
H163   H    -0.21425   0.31251   0.19578   0.00000  Uiso   1.00
C164   C    -0.21984   0.30735   0.50000   0.00000  Uiso   1.00
loop_
_geom_bond_atom_site_label_1
_geom_bond_atom_site_label_2
_geom_bond_distance
_geom_bond_site_symmetry_2
_ccdc_geom_bond_type
N1     C82     1.352   .     S
N1     O2      1.207   .     S
N1     N115    1.319   .     S
N3     C47     1.352   .     S
N3     O4      1.207   .     S
N3     N83     1.319   .     S
N5     C46     1.352   .     S
N5     O6      1.207   .     S
N5     N126    1.319   .     S
N7     C81     1.352   .     S
N7     O8      1.207   .     S
N7     N124    1.319   .     S
N9     C13     1.352   .     S
N9     C49     1.352   .     S
N9     H11     0.968   .     S
N10    C14     1.352   .     S
N10    C48     1.352   .     S
N10    H12     0.968   .     S
C13    C26     1.414   .     S
C13    C15     1.397   .     S
C14    C27     1.414   .     S
C14    C16     1.397   .     S
C15    H17     1.022   .     S
C15    C51     1.376   .     S
C16    H18     1.022   .     S
C16    C50     1.376   .     S
N19    C20     1.354   .     S
N19    C21     1.354   .     S
C20    C22     1.396   .     S
C21    C23     1.396   .     S
C22    H24     1.022   .     S
C22    C23     1.374   .     S
C23    H25     1.022   .     S
C26    C28     1.410   .     S
C26    C148    1.414   .     S
C27    C29     1.410   .     S
C28    C30     1.413   .     S
C28    C32     1.413   .     S
C29    C33     1.413   .     S
C29    C31     1.413   .     S
C30    C38     1.405   .     S
C30    H34     1.024   .     S
C31    C39     1.405   .     S
C31    H35     1.024   .     S
C32    C40     1.405   .     S
C32    H36     1.024   .     S
C33    C41     1.405   .     S
C33    H37     1.024   .     S
C38    C46     1.410   .     S
C38    H42     1.023   .     S
C39    C47     1.410   .     S
C39    H43     1.023   .     S
C40    C46     1.410   .     S
C40    H44     1.023   .     S
C41    C47     1.410   .     S
C41    H45     1.023   .     S
C48    C61     1.414   .     S
C48    C50     1.397   .     S
C49    C62     1.414   .     S
C49    C51     1.397   .     S
C50    H52     1.022   .     S
C51    H53     1.022   .     S
N54    C56     1.354   .     S
N54    C55     1.354   .     S
C55    C57     1.396   .     S
C55    C133    1.414   .     S
C56    C58     1.396   .     S
C56    C104    1.414   .     S
C57    H59     1.022   .     S
C57    C58     1.374   .     S
C58    H60     1.022   .     S
C61    C63     1.410   .     S
C62    C64     1.410   .     S
C62    C119    1.414   .     S
C63    C65     1.413   .     S
C63    C67     1.413   .     S
C64    C68     1.413   .     S
C64    C66     1.413   .     S
C65    C73     1.405   .     S
C65    H69     1.024   .     S
C66    C74     1.405   .     S
C66    H70     1.024   .     S
C67    C75     1.405   .     S
C67    H71     1.024   .     S
C68    C76     1.405   .     S
C68    H72     1.024   .     S
C73    C81     1.410   .     S
C73    H77     1.023   .     S
C74    C82     1.410   .     S
C74    H78     1.023   .     S
C75    C81     1.410   .     S
C75    H79     1.023   .     S
C76    C82     1.410   .     S
C76    H80     1.023   .     S
N83    C114    1.352   .     S
N83    O84     1.207   .     S
N85    C101    1.352   .     S
N85    C87     1.352   .     S
N85    H86     0.968   .     S
C87    C90     1.414   .     S
C87    C88     1.397   .     S
C88    H89     1.022   .     S
C88    C102    1.376   .     S
C90    C91     1.410   .     S
C91    C92     1.413   .     S
C91    C93     1.413   .     S
C92    C96     1.405   .     S
C92    H94     1.024   .     S
C93    C97     1.405   .     S
C93    H95     1.024   .     S
C96    C100    1.410   .     S
C96    H98     1.023   .     S
C97    C100    1.410   .     S
C97    H99     1.023   .     S
C101   C104    1.414   .     S
C101   C102    1.397   .     S
C102   H103    1.022   .     S
C104   C105    1.410   .     S
C105   C107    1.413   .     S
C105   C106    1.413   .     S
C106   C110    1.405   .     S
C106   H108    1.024   .     S
C107   C111    1.405   .     S
C107   H109    1.024   .     S
C110   C114    1.410   .     S
C110   H112    1.023   .     S
C111   C114    1.410   .     S
C111   H113    1.023   .     S
N115   O116    1.207   .     S
N117   C119    1.354   .     S
N117   C118    1.354   .     S
C118   C120    1.396   .     S
C119   C121    1.396   .     S
C120   H122    1.022   .     S
C120   C121    1.374   .     S
C121   H123    1.022   .     S
N124   O125    1.207   .     S
N126   C143    1.352   .     S
N126   O127    1.207   .     S
N128   C130    1.352   .     S
N128   C144    1.352   .     S
N128   H129    0.968   .     S
C130   C133    1.414   .     S
C130   C131    1.397   .     S
C131   H132    1.022   .     S
C131   C145    1.376   .     S
C133   C134    1.410   .     S
C134   C135    1.413   .     S
C134   C136    1.413   .     S
C135   C139    1.405   .     S
C135   H137    1.024   .     S
C136   C140    1.405   .     S
C136   H138    1.024   .     S
C139   C143    1.410   .     S
C139   H141    1.023   .     S
C140   C143    1.410   .     S
C140   H142    1.023   .     S
C144   C154    1.414   .     S
C144   C145    1.397   .     S
C145   H146    1.022   .     S
N147   C148    1.354   .     S
N147   C149    1.354   .     S
C148   C150    1.396   .     S
C149   C151    1.396   .     S
C150   H152    1.022   .     S
C150   C151    1.374   .     S
C151   H153    1.022   .     S
C154   C155    1.410   .     S
C155   C157    1.413   .     S
C155   C156    1.413   .     S
C156   C160    1.405   .     S
C156   H158    1.024   .     S
C157   C161    1.405   .     S
C157   H159    1.024   .     S
C160   C164    1.410   .     S
C160   H162    1.023   .     S
C161   C164    1.410   .     S
C161   H163    1.023   .     S
