data_Por-COF-jmca
_audit_creation_date              2016-12-13
_audit_creation_method            'Materials Studio'
_symmetry_space_group_name_H-M    'P1'
_symmetry_Int_Tables_number       1
_symmetry_cell_setting            triclinic
loop_
_symmetry_equiv_pos_as_xyz
  x,y,z
_cell_length_a                    25.4170
_cell_length_b                    12.3770
_cell_length_c                    25.4170
_cell_angle_alpha                 90.0000
_cell_angle_beta                  90.0000
_cell_angle_gamma                 90.0000
loop_
_atom_site_label
_atom_site_type_symbol
_atom_site_fract_x
_atom_site_fract_y
_atom_site_fract_z
_atom_site_U_iso_or_equiv
_atom_site_adp_type
_atom_site_occupancy
C1     C     0.00800   0.23600   0.30600   0.00000  Uiso   1.00
C2     C     0.99200   0.23600   0.69400   0.00000  Uiso   1.00
C3     C     0.99200   0.76400   0.69400   0.00000  Uiso   1.00
C4     C     0.00800   0.76400   0.30600   0.00000  Uiso   1.00
C5     C     0.03400   0.32300   0.28300   0.00000  Uiso   1.00
C6     C     0.96600   0.32300   0.71700   0.00000  Uiso   1.00
C7     C     0.96600   0.67700   0.71700   0.00000  Uiso   1.00
C8     C     0.03400   0.67700   0.28300   0.00000  Uiso   1.00
C9     C     0.03300   0.33900   0.22800   0.00000  Uiso   1.00
C10    C     0.96700   0.33900   0.77200   0.00000  Uiso   1.00
C11    C     0.96700   0.66100   0.77200   0.00000  Uiso   1.00
C12    C     0.03300   0.66100   0.22800   0.00000  Uiso   1.00
C13    C     0.04472   0.14448   0.46552   0.00000  Uiso   1.00
C14    C     0.95528   0.14448   0.53448   0.00000  Uiso   1.00
C15    C     0.95528   0.85552   0.53448   0.00000  Uiso   1.00
C16    C     0.04472   0.85552   0.46552   0.00000  Uiso   1.00
C17    C     0.00900   0.26500   0.19500   0.00000  Uiso   1.00
C18    C     0.99100   0.26500   0.80500   0.00000  Uiso   1.00
C19    C     0.99100   0.73500   0.80500   0.00000  Uiso   1.00
C20    C     0.00900   0.73500   0.19500   0.00000  Uiso   1.00
C21    C     0.00700   0.28200   0.13700   0.00000  Uiso   1.00
C22    C     0.99300   0.28200   0.86300   0.00000  Uiso   1.00
C23    C     0.99300   0.71800   0.86300   0.00000  Uiso   1.00
C24    C     0.00700   0.71800   0.13700   0.00000  Uiso   1.00
C25    C     0.01589   0.22167   0.35869   0.00000  Uiso   1.00
C26    C     0.98411   0.22167   0.64131   0.00000  Uiso   1.00
C27    C     0.98411   0.77833   0.64131   0.00000  Uiso   1.00
C28    C     0.01589   0.77833   0.35869   0.00000  Uiso   1.00
C29    C     0.98300   0.16900   0.21800   0.00000  Uiso   1.00
C30    C     0.01700   0.16900   0.78200   0.00000  Uiso   1.00
C31    C     0.01700   0.83100   0.78200   0.00000  Uiso   1.00
C32    C     0.98300   0.83100   0.21800   0.00000  Uiso   1.00
C33    C     0.98000   0.15700   0.27200   0.00000  Uiso   1.00
C34    C     0.02000   0.15700   0.72800   0.00000  Uiso   1.00
C35    C     0.02000   0.84300   0.72800   0.00000  Uiso   1.00
C36    C     0.98000   0.84300   0.27200   0.00000  Uiso   1.00
N1     N     0.97955   0.16956   0.39424   0.00000  Uiso   1.00
N2     N     0.02045   0.16956   0.60576   0.00000  Uiso   1.00
N3     N     0.02045   0.83044   0.60576   0.00000  Uiso   1.00
N4     N     0.97955   0.83044   0.39424   0.00000  Uiso   1.00
C37    C     0.94644   0.13842   0.48217   0.00000  Uiso   1.00
C38    C     0.05356   0.13842   0.51783   0.00000  Uiso   1.00
C39    C     0.05356   0.86158   0.51783   0.00000  Uiso   1.00
C40    C     0.94644   0.86158   0.48217   0.00000  Uiso   1.00
C41    C     0.99013   0.14870   0.44396   0.00000  Uiso   1.00
C42    C     0.00987   0.14870   0.55604   0.00000  Uiso   1.00
C43    C     0.00987   0.85130   0.55604   0.00000  Uiso   1.00
C44    C     0.99013   0.85130   0.44396   0.00000  Uiso   1.00
N5     N     0.94500   0.28700   0.05900   0.00000  Uiso   1.00
N6     N     0.05500   0.28700   0.94100   0.00000  Uiso   1.00
N7     N     0.05500   0.71300   0.94100   0.00000  Uiso   1.00
N8     N     0.94500   0.71300   0.05900   0.00000  Uiso   1.00
C45    C     0.95500   0.28800   0.11200   0.00000  Uiso   1.00
C46    C     0.04500   0.28800   0.88800   0.00000  Uiso   1.00
C47    C     0.04500   0.71200   0.88800   0.00000  Uiso   1.00
C48    C     0.95500   0.71200   0.11200   0.00000  Uiso   1.00
C49    C     0.90800   0.29000   0.14000   0.00000  Uiso   1.00
C50    C     0.09200   0.29000   0.86000   0.00000  Uiso   1.00
C51    C     0.09200   0.71000   0.86000   0.00000  Uiso   1.00
C52    C     0.90800   0.71000   0.14000   0.00000  Uiso   1.00
C53    C     0.89200   0.28600   0.05500   0.00000  Uiso   1.00
C54    C     0.10800   0.28600   0.94500   0.00000  Uiso   1.00
C55    C     0.10800   0.71400   0.94500   0.00000  Uiso   1.00
C56    C     0.89200   0.71400   0.05500   0.00000  Uiso   1.00
C57    C     0.86800   0.28600   0.10400   0.00000  Uiso   1.00
C58    C     0.13200   0.28600   0.89600   0.00000  Uiso   1.00
C59    C     0.13200   0.71400   0.89600   0.00000  Uiso   1.00
C60    C     0.86800   0.71400   0.10400   0.00000  Uiso   1.00
H1     H     0.05446   0.38106   0.30748   0.00000  Uiso   1.00
H2     H     0.94554   0.38106   0.69252   0.00000  Uiso   1.00
H3     H     0.94554   0.61894   0.69252   0.00000  Uiso   1.00
H4     H     0.05446   0.61894   0.30748   0.00000  Uiso   1.00
H5     H     0.05215   0.40924   0.21168   0.00000  Uiso   1.00
H6     H     0.94785   0.40924   0.78832   0.00000  Uiso   1.00
H7     H     0.94785   0.59076   0.78832   0.00000  Uiso   1.00
H8     H     0.05215   0.59076   0.21168   0.00000  Uiso   1.00
H9     H     0.07781   0.14108   0.43883   0.00000  Uiso   1.00
H10    H     0.92219   0.14108   0.56117   0.00000  Uiso   1.00
H11    H     0.92219   0.85892   0.56117   0.00000  Uiso   1.00
H12    H     0.07781   0.85892   0.43883   0.00000  Uiso   1.00
H13    H     0.96414   0.11013   0.19275   0.00000  Uiso   1.00
H14    H     0.03586   0.11013   0.80725   0.00000  Uiso   1.00
H15    H     0.03586   0.88987   0.80725   0.00000  Uiso   1.00
H16    H     0.96414   0.88987   0.19275   0.00000  Uiso   1.00
H17    H     0.95845   0.09036   0.28877   0.00000  Uiso   1.00
H18    H     0.04155   0.09036   0.71123   0.00000  Uiso   1.00
H19    H     0.04155   0.90964   0.71123   0.00000  Uiso   1.00
H20    H     0.95845   0.90964   0.28877   0.00000  Uiso   1.00
H21    H     0.90652   0.13378   0.46754   0.00000  Uiso   1.00
H22    H     0.09348   0.13378   0.53246   0.00000  Uiso   1.00
H23    H     0.09348   0.86622   0.53246   0.00000  Uiso   1.00
H24    H     0.90652   0.86622   0.46754   0.00000  Uiso   1.00
H25    H     0.90285   0.29183   0.18223   0.00000  Uiso   1.00
H26    H     0.09715   0.29183   0.81777   0.00000  Uiso   1.00
H27    H     0.09715   0.70817   0.81777   0.00000  Uiso   1.00
H28    H     0.90285   0.70817   0.18223   0.00000  Uiso   1.00
H29    H     0.82672   0.28198   0.11385   0.00000  Uiso   1.00
H30    H     0.17328   0.28198   0.88615   0.00000  Uiso   1.00
H31    H     0.17328   0.71802   0.88615   0.00000  Uiso   1.00
H32    H     0.82672   0.71802   0.11385   0.00000  Uiso   1.00
H33    H     0.97057   0.71924   0.97193   0.00000  Uiso   1.00
H34    H     0.02943   0.71924   0.02807   0.00000  Uiso   1.00
H35    H     0.02943   0.28076   0.02807   0.00000  Uiso   1.00
H36    H     0.97057   0.28076   0.97193   0.00000  Uiso   1.00
C61    C     0.30600   0.23600   0.99200   0.00000  Uiso   1.00
C62    C     0.69400   0.23600   0.00800   0.00000  Uiso   1.00
C63    C     0.69400   0.76400   0.00800   0.00000  Uiso   1.00
C64    C     0.30600   0.76400   0.99200   0.00000  Uiso   1.00
C65    C     0.28300   0.32300   0.96600   0.00000  Uiso   1.00
C66    C     0.71700   0.32300   0.03400   0.00000  Uiso   1.00
C67    C     0.71700   0.67700   0.03400   0.00000  Uiso   1.00
C68    C     0.28300   0.67700   0.96600   0.00000  Uiso   1.00
C69    C     0.22800   0.33900   0.96700   0.00000  Uiso   1.00
C70    C     0.77200   0.33900   0.03300   0.00000  Uiso   1.00
C71    C     0.77200   0.66100   0.03300   0.00000  Uiso   1.00
C72    C     0.22800   0.66100   0.96700   0.00000  Uiso   1.00
C73    C     0.46730   0.13581   0.95589   0.00000  Uiso   1.00
C74    C     0.53270   0.13581   0.04411   0.00000  Uiso   1.00
C75    C     0.53270   0.86419   0.04411   0.00000  Uiso   1.00
C76    C     0.46730   0.86419   0.95589   0.00000  Uiso   1.00
C77    C     0.19500   0.26500   0.99100   0.00000  Uiso   1.00
C78    C     0.80500   0.26500   0.00900   0.00000  Uiso   1.00
C79    C     0.80500   0.73500   0.00900   0.00000  Uiso   1.00
C80    C     0.19500   0.73500   0.99100   0.00000  Uiso   1.00
C81    C     0.13700   0.28200   0.99300   0.00000  Uiso   1.00
C82    C     0.86300   0.28200   0.00700   0.00000  Uiso   1.00
C83    C     0.86300   0.71800   0.00700   0.00000  Uiso   1.00
C84    C     0.13700   0.71800   0.99300   0.00000  Uiso   1.00
C85    C     0.36333   0.22251   0.98718   0.00000  Uiso   1.00
C86    C     0.63667   0.22251   0.01282   0.00000  Uiso   1.00
C87    C     0.63667   0.77749   0.01282   0.00000  Uiso   1.00
C88    C     0.36333   0.77749   0.98718   0.00000  Uiso   1.00
C89    C     0.21800   0.16900   0.01700   0.00000  Uiso   1.00
C90    C     0.78200   0.16900   0.98300   0.00000  Uiso   1.00
C91    C     0.78200   0.83100   0.98300   0.00000  Uiso   1.00
C92    C     0.21800   0.83100   0.01700   0.00000  Uiso   1.00
C93    C     0.27200   0.15700   0.02000   0.00000  Uiso   1.00
C94    C     0.72800   0.15700   0.98000   0.00000  Uiso   1.00
C95    C     0.72800   0.84300   0.98000   0.00000  Uiso   1.00
C96    C     0.27200   0.84300   0.02000   0.00000  Uiso   1.00
N9     N     0.38945   0.15093   0.01381   0.00000  Uiso   1.00
N10    N     0.61055   0.15093   0.98619   0.00000  Uiso   1.00
N11    N     0.61055   0.84907   0.98619   0.00000  Uiso   1.00
N12    N     0.38945   0.84907   0.01381   0.00000  Uiso   1.00
C97    C     0.47799   0.13482   0.05053   0.00000  Uiso   1.00
C98    C     0.52201   0.13482   0.94947   0.00000  Uiso   1.00
C99    C     0.52201   0.86518   0.94947   0.00000  Uiso   1.00
C100   C     0.47799   0.86518   0.05053   0.00000  Uiso   1.00
C101   C     0.44507   0.13831   0.00658   0.00000  Uiso   1.00
C102   C     0.55493   0.13831   0.99342   0.00000  Uiso   1.00
C103   C     0.55493   0.86169   0.99342   0.00000  Uiso   1.00
C104   C     0.44507   0.86169   0.00658   0.00000  Uiso   1.00
N13    N     0.05900   0.28700   0.05500   0.00000  Uiso   1.00
N14    N     0.94100   0.28700   0.94500   0.00000  Uiso   1.00
N15    N     0.94100   0.71300   0.94500   0.00000  Uiso   1.00
N16    N     0.05900   0.71300   0.05500   0.00000  Uiso   1.00
C105   C     0.11200   0.28800   0.04500   0.00000  Uiso   1.00
C106   C     0.88800   0.28800   0.95500   0.00000  Uiso   1.00
C107   C     0.88800   0.71200   0.95500   0.00000  Uiso   1.00
C108   C     0.11200   0.71200   0.04500   0.00000  Uiso   1.00
C109   C     0.14000   0.29000   0.09200   0.00000  Uiso   1.00
C110   C     0.86000   0.29000   0.90800   0.00000  Uiso   1.00
C111   C     0.86000   0.71000   0.90800   0.00000  Uiso   1.00
C112   C     0.14000   0.71000   0.09200   0.00000  Uiso   1.00
C113   C     0.05500   0.28600   0.10800   0.00000  Uiso   1.00
C114   C     0.94500   0.28600   0.89200   0.00000  Uiso   1.00
C115   C     0.94500   0.71400   0.89200   0.00000  Uiso   1.00
C116   C     0.05500   0.71400   0.10800   0.00000  Uiso   1.00
C117   C     0.10400   0.28600   0.13200   0.00000  Uiso   1.00
C118   C     0.89600   0.28600   0.86800   0.00000  Uiso   1.00
C119   C     0.89600   0.71400   0.86800   0.00000  Uiso   1.00
C120   C     0.10400   0.71400   0.13200   0.00000  Uiso   1.00
H37    H     0.30748   0.38106   0.94554   0.00000  Uiso   1.00
H38    H     0.69252   0.38106   0.05446   0.00000  Uiso   1.00
H39    H     0.69252   0.61894   0.05446   0.00000  Uiso   1.00
H40    H     0.30748   0.61894   0.94554   0.00000  Uiso   1.00
H41    H     0.21168   0.40924   0.94785   0.00000  Uiso   1.00
H42    H     0.78832   0.40924   0.05215   0.00000  Uiso   1.00
H43    H     0.78832   0.59076   0.05215   0.00000  Uiso   1.00
H44    H     0.21168   0.59076   0.94785   0.00000  Uiso   1.00
H45    H     0.44211   0.13571   0.92158   0.00000  Uiso   1.00
H46    H     0.55789   0.13571   0.07842   0.00000  Uiso   1.00
H47    H     0.55789   0.86429   0.07842   0.00000  Uiso   1.00
H48    H     0.44211   0.86429   0.92158   0.00000  Uiso   1.00
H49    H     0.19275   0.11013   0.03586   0.00000  Uiso   1.00
H50    H     0.80725   0.11013   0.96414   0.00000  Uiso   1.00
H51    H     0.80725   0.88987   0.96414   0.00000  Uiso   1.00
H52    H     0.19275   0.88987   0.03586   0.00000  Uiso   1.00
H53    H     0.28877   0.09036   0.04155   0.00000  Uiso   1.00
H54    H     0.71123   0.09036   0.95845   0.00000  Uiso   1.00
H55    H     0.71123   0.90964   0.95845   0.00000  Uiso   1.00
H56    H     0.28877   0.90964   0.04155   0.00000  Uiso   1.00
H57    H     0.46100   0.13540   0.08956   0.00000  Uiso   1.00
H58    H     0.53900   0.13540   0.91044   0.00000  Uiso   1.00
H59    H     0.53900   0.86460   0.91044   0.00000  Uiso   1.00
H60    H     0.46100   0.86460   0.08956   0.00000  Uiso   1.00
H61    H     0.18223   0.29183   0.09715   0.00000  Uiso   1.00
H62    H     0.81777   0.29183   0.90285   0.00000  Uiso   1.00
H63    H     0.81777   0.70817   0.90285   0.00000  Uiso   1.00
H64    H     0.18223   0.70817   0.09715   0.00000  Uiso   1.00
H65    H     0.11385   0.28198   0.17328   0.00000  Uiso   1.00
H66    H     0.88615   0.28198   0.82672   0.00000  Uiso   1.00
H67    H     0.88615   0.71802   0.82672   0.00000  Uiso   1.00
H68    H     0.11385   0.71802   0.17328   0.00000  Uiso   1.00
H69    H     0.38415   0.72369   0.96062   0.00000  Uiso   1.00
H70    H     0.04555   0.72834   0.37753   0.00000  Uiso   1.00
H71    H     0.61585   0.72369   0.03938   0.00000  Uiso   1.00
H72    H     0.95445   0.72834   0.62247   0.00000  Uiso   1.00
H73    H     0.61585   0.27631   0.03938   0.00000  Uiso   1.00
H74    H     0.95445   0.27166   0.62247   0.00000  Uiso   1.00
H75    H     0.38415   0.27631   0.96062   0.00000  Uiso   1.00
H76    H     0.04555   0.27166   0.37753   0.00000  Uiso   1.00
loop_
_geom_bond_atom_site_label_1
_geom_bond_atom_site_label_2
_geom_bond_distance
_geom_bond_site_symmetry_2
_ccdc_geom_bond_type
C1     C5      1.392   .     S
C1     C25     1.366   .     S
C2     C26     1.366   .     S
C2     C6      1.392   .     S
C3     C27     1.366   .     S
C3     C7      1.392   .     S
C4     C8      1.392   .     S
C4     C28     1.366   .     S
C5     H1      1.083   .     S
C5     C9      1.412   .     S
C6     H2      1.083   .     S
C6     C10     1.412   .     S
C7     H3      1.083   .     S
C7     C11     1.412   .     S
C8     H4      1.083   .     S
C8     C12     1.412   .     S
C9     H5      1.079   .     S
C9     C17     1.384   .     S
C10    H6      1.079   .     S
C10    C18     1.384   .     S
C11    H7      1.079   .     S
C11    C19     1.384   .     S
C12    H8      1.079   .     S
C12    C20     1.384   .     S
C13    H9      1.081   .     S
C13    C38     1.350   .     S
C14    C37     1.350   .     S
C14    H10     1.081   .     S
C15    C40     1.350   .     S
C15    H11     1.081   .     S
C16    H12     1.081   .     S
C16    C39     1.350   .     S
C17    C21     1.490   .     S
C18    C22     1.490   .     S
C19    C23     1.490   .     S
C20    C24     1.490   .     S
C21    C113    1.426   .     S
C22    C114    1.426   .     S
C23    C115    1.426   .     S
C24    C116    1.426   .     S
C25    H76     1.086   .     S
C26    H74     1.086   .     S
C27    H72     1.086   .     S
C28    H70     1.086   .     S
C29    C33     1.383   .     S
C29    H13     1.083   .     S
C30    H14     1.083   .     S
C30    C34     1.383   .     S
C31    H15     1.083   .     S
C31    C35     1.383   .     S
C32    C36     1.383   .     S
C32    H16     1.083   .     S
C33    H17     1.078   .     S
C34    H18     1.078   .     S
C35    H19     1.078   .     S
C36    H20     1.078   .     S
N1     C41     1.318   .     S
N2     C42     1.318   .     S
N3     C43     1.318   .     S
N4     C44     1.318   .     S
C37    H21     1.082   .     S
C37    C41     1.481   .     S
C38    H22     1.082   .     S
C38    C42     1.481   .     S
C39    H23     1.082   .     S
C39    C43     1.481   .     S
C40    H24     1.082   .     S
C40    C44     1.481   .     S
N5     C53     1.351   .     S
N5     C45     1.371   .     S
N6     C54     1.351   .     S
N6     C46     1.371   .     S
N7     C55     1.351   .     S
N7     C47     1.371   .     S
N8     C56     1.351   .     S
N8     C48     1.371   .     S
C45    C49     1.391   .     S
C46    C50     1.391   .     S
C47    C51     1.391   .     S
C48    C52     1.391   .     S
C49    H25     1.081   .     S
C49    C57     1.369   .     S
C50    C58     1.369   .     S
C50    H26     1.081   .     S
C51    C59     1.369   .     S
C51    H27     1.081   .     S
C52    H28     1.081   .     S
C52    C60     1.369   .     S
C53    C82     1.426   .     S
C53    C57     1.387   .     S
C54    C58     1.387   .     S
C54    C81     1.426   .     S
C55    C59     1.387   .     S
C55    C84     1.426   .     S
C56    C83     1.426   .     S
C56    C60     1.387   .     S
C57    H29     1.080   .     S
C58    H30     1.080   .     S
C59    H31     1.080   .     S
C60    H32     1.080   .     S
H33    N15     1.020   .     S
H34    N16     1.020   .     S
H35    N13     1.020   .     S
H36    N14     1.020   .     S
C61    C85     1.472   .     S
C61    C65     1.392   .     S
C62    C86     1.472   .     S
C62    C66     1.392   .     S
C63    C87     1.472   .     S
C63    C67     1.392   .     S
C64    C88     1.472   .     S
C64    C68     1.392   .     S
C65    H37     1.083   .     S
C65    C69     1.412   .     S
C66    H38     1.083   .     S
C66    C70     1.412   .     S
C67    H39     1.083   .     S
C67    C71     1.412   .     S
C68    H40     1.083   .     S
C68    C72     1.412   .     S
C69    H41     1.079   .     S
C69    C77     1.384   .     S
C70    H42     1.079   .     S
C70    C78     1.384   .     S
C71    H43     1.079   .     S
C71    C79     1.384   .     S
C72    H44     1.079   .     S
C72    C80     1.384   .     S
C73    H45     1.082   .     S
C73    C98     1.400   .     S
C74    C97     1.400   .     S
C74    H46     1.082   .     S
C75    C100    1.400   .     S
C75    H47     1.082   .     S
C76    H48     1.082   .     S
C76    C99     1.400   .     S
C77    C81     1.490   .     S
C78    C82     1.490   .     S
C79    C83     1.490   .     S
C80    C84     1.490   .     S
C85    H75     1.086   .     S
C86    H73     1.086   .     S
C87    H71     1.086   .     S
C88    H69     1.086   .     S
C89    C93     1.383   .     S
C89    H49     1.083   .     S
C90    C94     1.383   .     S
C90    H50     1.083   .     S
C91    C95     1.383   .     S
C91    H51     1.083   .     S
C92    C96     1.383   .     S
C92    H52     1.083   .     S
C93    H53     1.078   .     S
C94    H54     1.078   .     S
C95    H55     1.078   .     S
C96    H56     1.078   .     S
N9     C101    1.434   .     S
N10    C102    1.434   .     S
N11    C103    1.434   .     S
N12    C104    1.434   .     S
C97    C101    1.396   .     S
C97    H57     1.082   .     S
C98    H58     1.082   .     S
C98    C102    1.396   .     S
C99    H59     1.082   .     S
C99    C103    1.396   .     S
C100   C104    1.396   .     S
C100   H60     1.082   .     S
N13    C105    1.371   .     S
N13    C113    1.351   .     S
N14    C106    1.371   .     S
N14    C114    1.351   .     S
N15    C107    1.371   .     S
N15    C115    1.351   .     S
N16    C108    1.371   .     S
N16    C116    1.351   .     S
C105   C109    1.391   .     S
C106   C110    1.391   .     S
C107   C111    1.391   .     S
C108   C112    1.391   .     S
C109   H61     1.081   .     S
C109   C117    1.369   .     S
C110   H62     1.081   .     S
C110   C118    1.369   .     S
C111   C119    1.369   .     S
C111   H63     1.081   .     S
C112   H64     1.081   .     S
C112   C120    1.369   .     S
C113   C117    1.387   .     S
C114   C118    1.387   .     S
C115   C119    1.387   .     S
C116   C120    1.387   .     S
C117   H65     1.080   .     S
C118   H66     1.080   .     S
C119   H67     1.080   .     S
C120   H68     1.080   .     S
