data_PPy-COF
_audit_creation_date              2016-12-13
_audit_creation_method            'Materials Studio'
_symmetry_space_group_name_H-M    'P1'
_symmetry_Int_Tables_number       1
_symmetry_cell_setting            triclinic
loop_
_symmetry_equiv_pos_as_xyz
  x,y,z
_cell_length_a                    22.1629
_cell_length_b                    22.1629
_cell_length_c                    3.4207
_cell_angle_alpha                 90.0000
_cell_angle_beta                  90.0000
_cell_angle_gamma                 120.0000
loop_
_atom_site_label
_atom_site_type_symbol
_atom_site_fract_x
_atom_site_fract_y
_atom_site_fract_z
_atom_site_U_iso_or_equiv
_atom_site_adp_type
_atom_site_occupancy
C1     C     0.14521   0.62588   0.49999   0.00000  Uiso   1.00
C2     C     0.07328   0.59117   0.49999   0.00000  Uiso   1.00
C3     C     0.03489   0.62661   0.49999   0.00000  Uiso   1.00
H1     H     0.17408   0.68527   0.49999   0.00000  Uiso   1.00
H2     H     0.06339   0.68600   0.49999   0.00000  Uiso   1.00
C4     C     0.37412   0.51933   0.49999   0.00000  Uiso   1.00
C5     C     0.40883   0.48211   0.49999   0.00000  Uiso   1.00
C6     C     0.37339   0.40828   0.49999   0.00000  Uiso   1.00
H3     H     0.31473   0.48881   0.49999   0.00000  Uiso   1.00
H4     H     0.31400   0.37739   0.49999   0.00000  Uiso   1.00
C7     C     0.48067   0.85479   0.49999   0.00000  Uiso   1.00
C8     C     0.51789   0.92672   0.49999   0.00000  Uiso   1.00
C9     C     0.59172   0.96511   0.49999   0.00000  Uiso   1.00
H5     H     0.51119   0.82592   0.49999   0.00000  Uiso   1.00
H6     H     0.62261   0.93661   0.49999   0.00000  Uiso   1.00
C10    C     0.85479   0.37412   0.49999   0.00000  Uiso   1.00
C11    C     0.92672   0.40883   0.49999   0.00000  Uiso   1.00
C12    C     0.96511   0.37339   0.49999   0.00000  Uiso   1.00
H7     H     0.82592   0.31473   0.49999   0.00000  Uiso   1.00
H8     H     0.93661   0.31400   0.49999   0.00000  Uiso   1.00
C13    C     0.62588   0.48067   0.49999   0.00000  Uiso   1.00
C14    C     0.59117   0.51789   0.49999   0.00000  Uiso   1.00
C15    C     0.62661   0.59172   0.49999   0.00000  Uiso   1.00
H9     H     0.68527   0.51119   0.49999   0.00000  Uiso   1.00
H10    H     0.68600   0.62261   0.49999   0.00000  Uiso   1.00
C16    C     0.51933   0.14521   0.49999   0.00000  Uiso   1.00
C17    C     0.48211   0.07328   0.49999   0.00000  Uiso   1.00
C18    C     0.40828   0.03489   0.49999   0.00000  Uiso   1.00
H11    H     0.48881   0.17408   0.49999   0.00000  Uiso   1.00
H12    H     0.37739   0.06339   0.49999   0.00000  Uiso   1.00
C19    C     0.62588   0.14521   0.49999   0.00000  Uiso   1.00
C20    C     0.59117   0.07328   0.49999   0.00000  Uiso   1.00
C21    C     0.62661   0.03489   0.49999   0.00000  Uiso   1.00
H13    H     0.68527   0.17408   0.49999   0.00000  Uiso   1.00
H14    H     0.68600   0.06339   0.49999   0.00000  Uiso   1.00
C22    C     0.51933   0.37412   0.49999   0.00000  Uiso   1.00
C23    C     0.48211   0.40883   0.49999   0.00000  Uiso   1.00
C24    C     0.40828   0.37339   0.49999   0.00000  Uiso   1.00
H15    H     0.48881   0.31473   0.49999   0.00000  Uiso   1.00
H16    H     0.37739   0.31400   0.49999   0.00000  Uiso   1.00
C25    C     0.85479   0.48067   0.49999   0.00000  Uiso   1.00
C26    C     0.92672   0.51789   0.49999   0.00000  Uiso   1.00
C27    C     0.96511   0.59172   0.49999   0.00000  Uiso   1.00
H17    H     0.82592   0.51119   0.49999   0.00000  Uiso   1.00
H18    H     0.93661   0.62261   0.49999   0.00000  Uiso   1.00
C28    C     0.37412   0.85479   0.49999   0.00000  Uiso   1.00
C29    C     0.40883   0.92672   0.49999   0.00000  Uiso   1.00
C30    C     0.37339   0.96511   0.49999   0.00000  Uiso   1.00
H19    H     0.31473   0.82592   0.49999   0.00000  Uiso   1.00
H20    H     0.31400   0.93661   0.49999   0.00000  Uiso   1.00
C31    C     0.48067   0.62588   0.49999   0.00000  Uiso   1.00
C32    C     0.51789   0.59117   0.49999   0.00000  Uiso   1.00
C33    C     0.59172   0.62661   0.49999   0.00000  Uiso   1.00
H21    H     0.51119   0.68527   0.49999   0.00000  Uiso   1.00
H22    H     0.62261   0.68600   0.49999   0.00000  Uiso   1.00
C34    C     0.14521   0.51933   0.49999   0.00000  Uiso   1.00
C35    C     0.07328   0.48211   0.49999   0.00000  Uiso   1.00
C36    C     0.03489   0.40828   0.49999   0.00000  Uiso   1.00
H23    H     0.17408   0.48881   0.49999   0.00000  Uiso   1.00
H24    H     0.06339   0.37739   0.49999   0.00000  Uiso   1.00
C37    C     0.18206   0.59103   0.49999   0.00000  Uiso   1.00
C38    C     0.03650   0.51825   0.49999   0.00000  Uiso   1.00
B1     B     0.26177   0.63089   0.49999   0.00000  Uiso   1.00
C39    C     0.40897   0.59103   0.49999   0.00000  Uiso   1.00
C40    C     0.48175   0.51825   0.49999   0.00000  Uiso   1.00
B2     B     0.36912   0.63089   0.49999   0.00000  Uiso   1.00
C41    C     0.40897   0.81794   0.49999   0.00000  Uiso   1.00
C42    C     0.48175   0.96350   0.49999   0.00000  Uiso   1.00
B3     B     0.36912   0.73823   0.49999   0.00000  Uiso   1.00
C43    C     0.81794   0.40897   0.49999   0.00000  Uiso   1.00
C44    C     0.96350   0.48175   0.49999   0.00000  Uiso   1.00
B4     B     0.73823   0.36912   0.49999   0.00000  Uiso   1.00
C45    C     0.59103   0.40897   0.49999   0.00000  Uiso   1.00
C46    C     0.51825   0.48175   0.49999   0.00000  Uiso   1.00
B5     B     0.63089   0.36912   0.49999   0.00000  Uiso   1.00
C47    C     0.59103   0.18206   0.49999   0.00000  Uiso   1.00
C48    C     0.51825   0.03650   0.49999   0.00000  Uiso   1.00
B6     B     0.63089   0.26177   0.49999   0.00000  Uiso   1.00
O1     O     0.29791   0.59581   0.49999   0.00000  Uiso   1.00
O2     O     0.40419   0.70210   0.49999   0.00000  Uiso   1.00
O3     O     0.29791   0.70210   0.49999   0.00000  Uiso   1.00
O4     O     0.70210   0.40419   0.49999   0.00000  Uiso   1.00
O5     O     0.59581   0.29791   0.49999   0.00000  Uiso   1.00
O6     O     0.70210   0.29791   0.49999   0.00000  Uiso   1.00
loop_
_geom_bond_atom_site_label_1
_geom_bond_atom_site_label_2
_geom_bond_distance
_geom_bond_site_symmetry_2
_ccdc_geom_bond_type
C1     C2      1.381   .     S
C1     C37     1.376   .     S
C1     H1      1.140   .     S
C2     C3      1.417   .     S
C2     C38     1.400   .     S
C3     H2      1.140   .     S
C4     H3      1.140   .     S
C4     C5      1.381   .     S
C4     C39     1.376   .     S
C5     C40     1.400   .     S
C5     C6      1.417   .     S
C6     C24     1.339   .     S
C6     H4      1.140   .     S
C7     C8      1.381   .     S
C7     C41     1.376   .     S
C7     H5      1.140   .     S
C8     C42     1.400   .     S
C8     C9      1.417   .     S
C9     H6      1.140   .     S
C10    C43     1.376   .     S
C10    C11     1.381   .     S
C10    H7      1.140   .     S
C11    C12     1.417   .     S
C11    C44     1.400   .     S
C12    H8      1.140   .     S
C13    C14     1.381   .     S
C13    H9      1.140   .     S
C13    C45     1.376   .     S
C14    C46     1.400   .     S
C14    C15     1.417   .     S
C15    H10     1.140   .     S
C15    C33     1.339   .     S
C16    H11     1.140   .     S
C16    C47     1.376   .     S
C16    C17     1.381   .     S
C17    C18     1.417   .     S
C17    C48     1.400   .     S
C18    H12     1.140   .     S
C19    C47     1.376   .     S
C19    H13     1.140   .     S
C19    C20     1.381   .     S
C20    C48     1.400   .     S
C20    C21     1.417   .     S
C21    H14     1.140   .     S
C22    C45     1.376   .     S
C22    C23     1.381   .     S
C22    H15     1.140   .     S
C23    C24     1.417   .     S
C23    C46     1.400   .     S
C24    H16     1.140   .     S
C25    H17     1.140   .     S
C25    C26     1.381   .     S
C25    C43     1.376   .     S
C26    C44     1.400   .     S
C26    C27     1.417   .     S
C27    H18     1.140   .     S
C28    C29     1.381   .     S
C28    H19     1.140   .     S
C28    C41     1.376   .     S
C29    C30     1.417   .     S
C29    C42     1.400   .     S
C30    H20     1.140   .     S
C31    C32     1.381   .     S
C31    C39     1.376   .     S
C31    H21     1.140   .     S
C32    C33     1.417   .     S
C32    C40     1.400   .     S
C33    H22     1.140   .     S
C34    C35     1.381   .     S
C34    H23     1.140   .     S
C34    C37     1.376   .     S
C35    C38     1.400   .     S
C35    C36     1.417   .     S
C36    H24     1.140   .     S
C37    B1      1.530   .     S
B1     O1      1.367   .     S
B1     O3      1.367   .     S
C39    B2      1.530   .     S
C40    C46     1.401   .     S
B2     O1      1.367   .     S
B2     O2      1.367   .     S
C41    B3      1.530   .     S
B3     O2      1.367   .     S
B3     O3      1.367   .     S
C43    B4      1.530   .     S
B4     O4      1.367   .     S
B4     O6      1.367   .     S
C45    B5      1.530   .     S
B5     O4      1.367   .     S
B5     O5      1.367   .     S
C47    B6      1.530   .     S
B6     O6      1.367   .     S
B6     O5      1.367   .     S
