data_Py-22-BPYPH_COF
_audit_creation_date              2016-12-13
_audit_creation_method            'Materials Studio'
_symmetry_space_group_name_H-M    'P1'
_symmetry_Int_Tables_number       1
_symmetry_cell_setting            triclinic
loop_
_symmetry_equiv_pos_as_xyz
  x,y,z
_cell_length_a                    37.6709
_cell_length_b                    43.2742
_cell_length_c                    4.0070
_cell_angle_alpha                 90.0000
_cell_angle_beta                  90.0000
_cell_angle_gamma                 90.0000
loop_
_atom_site_label
_atom_site_type_symbol
_atom_site_fract_x
_atom_site_fract_y
_atom_site_fract_z
_atom_site_U_iso_or_equiv
_atom_site_adp_type
_atom_site_occupancy
C1     C     0.96730   0.46672   0.33946   0.00000  Uiso   1.00
C2     C     0.46733   0.96669   0.57576   0.00000  Uiso   1.00
C3     C     0.03272   0.53328   0.33946   0.00000  Uiso   1.00
C4     C     0.53270   0.03331   0.57576   0.00000  Uiso   1.00
C5     C     0.96730   0.53328   0.33946   0.00000  Uiso   1.00
C6     C     0.46733   0.03331   0.57576   0.00000  Uiso   1.00
C7     C     0.03272   0.46672   0.33946   0.00000  Uiso   1.00
C8     C     0.53270   0.96669   0.57576   0.00000  Uiso   1.00
C9     C     0.93605   0.51614   0.27942   0.00000  Uiso   1.00
C10    C     0.43610   0.01614   0.51497   0.00000  Uiso   1.00
C11    C     0.06398   0.48386   0.27942   0.00000  Uiso   1.00
C12    C     0.56393   0.98386   0.51497   0.00000  Uiso   1.00
C13    C     0.93605   0.48386   0.27942   0.00000  Uiso   1.00
C14    C     0.43610   0.98386   0.51497   0.00000  Uiso   1.00
C15    C     0.06398   0.51614   0.27942   0.00000  Uiso   1.00
C16    C     0.56393   0.01614   0.51497   0.00000  Uiso   1.00
C17    C     0.96694   0.56593   0.39147   0.00000  Uiso   1.00
C18    C     0.46696   0.06598   0.62667   0.00000  Uiso   1.00
C19    C     0.03309   0.43407   0.39147   0.00000  Uiso   1.00
C20    C     0.53307   0.93402   0.62667   0.00000  Uiso   1.00
C21    C     0.96694   0.43407   0.39147   0.00000  Uiso   1.00
C22    C     0.46696   0.93402   0.62667   0.00000  Uiso   1.00
C23    C     0.03309   0.56593   0.39147   0.00000  Uiso   1.00
C24    C     0.53307   0.06598   0.62667   0.00000  Uiso   1.00
C25    C     0.93594   0.58476   0.41320   0.00000  Uiso   1.00
C26    C     0.43587   0.08471   0.64561   0.00000  Uiso   1.00
C27    C     0.06409   0.41524   0.41320   0.00000  Uiso   1.00
C28    C     0.56416   0.91529   0.64561   0.00000  Uiso   1.00
C29    C     0.93594   0.41524   0.41320   0.00000  Uiso   1.00
C30    C     0.43587   0.91529   0.64561   0.00000  Uiso   1.00
C31    C     0.06409   0.58476   0.41320   0.00000  Uiso   1.00
C32    C     0.56416   0.08471   0.64561   0.00000  Uiso   1.00
C33    C     0.90604   0.57616   0.60584   0.00000  Uiso   1.00
C34    C     0.40591   0.07601   0.83688   0.00000  Uiso   1.00
C35    C     0.09399   0.42384   0.60584   0.00000  Uiso   1.00
C36    C     0.59412   0.92399   0.83688   0.00000  Uiso   1.00
C37    C     0.90604   0.42384   0.60584   0.00000  Uiso   1.00
C38    C     0.40591   0.92399   0.83688   0.00000  Uiso   1.00
C39    C     0.09399   0.57616   0.60584   0.00000  Uiso   1.00
C40    C     0.59412   0.07601   0.83688   0.00000  Uiso   1.00
C41    C     0.87573   0.59506   0.62807   0.00000  Uiso   1.00
C42    C     0.37505   0.09429   0.84855   0.00000  Uiso   1.00
C43    C     0.12430   0.40494   0.62807   0.00000  Uiso   1.00
C44    C     0.62498   0.90571   0.84855   0.00000  Uiso   1.00
C45    C     0.87573   0.40494   0.62807   0.00000  Uiso   1.00
C46    C     0.37505   0.90571   0.84855   0.00000  Uiso   1.00
C47    C     0.12430   0.59506   0.62807   0.00000  Uiso   1.00
C48    C     0.62498   0.09429   0.84855   0.00000  Uiso   1.00
C49    C     0.87464   0.62419   0.46892   0.00000  Uiso   1.00
C50    C     0.37338   0.12291   0.67928   0.00000  Uiso   1.00
C51    C     0.12538   0.37581   0.46892   0.00000  Uiso   1.00
C52    C     0.62665   0.87709   0.67928   0.00000  Uiso   1.00
C53    C     0.87464   0.37581   0.46892   0.00000  Uiso   1.00
C54    C     0.37338   0.87709   0.67928   0.00000  Uiso   1.00
C55    C     0.12538   0.62419   0.46892   0.00000  Uiso   1.00
C56    C     0.62665   0.12291   0.67928   0.00000  Uiso   1.00
C57    C     0.90452   0.63324   0.27910   0.00000  Uiso   1.00
C58    C     0.40359   0.13238   0.49664   0.00000  Uiso   1.00
C59    C     0.09551   0.36676   0.27910   0.00000  Uiso   1.00
C60    C     0.59644   0.86762   0.49664   0.00000  Uiso   1.00
C61    C     0.90452   0.36676   0.27910   0.00000  Uiso   1.00
C62    C     0.40359   0.86762   0.49664   0.00000  Uiso   1.00
C63    C     0.09551   0.63324   0.27910   0.00000  Uiso   1.00
C64    C     0.59644   0.13238   0.49664   0.00000  Uiso   1.00
C65    C     0.93426   0.61376   0.24862   0.00000  Uiso   1.00
C66    C     0.43395   0.11350   0.47713   0.00000  Uiso   1.00
C67    C     0.06576   0.38624   0.24862   0.00000  Uiso   1.00
C68    C     0.56607   0.88649   0.47713   0.00000  Uiso   1.00
C69    C     0.93426   0.38624   0.24862   0.00000  Uiso   1.00
C70    C     0.43395   0.88649   0.47713   0.00000  Uiso   1.00
C71    C     0.06576   0.61376   0.24862   0.00000  Uiso   1.00
C72    C     0.56607   0.11350   0.47713   0.00000  Uiso   1.00
C73    C     0.84466   0.64339   0.50597   0.00000  Uiso   1.00
C74    C     0.34225   0.14092   0.69553   0.00000  Uiso   1.00
C75    C     0.15537   0.35661   0.50597   0.00000  Uiso   1.00
C76    C     0.65778   0.85908   0.69553   0.00000  Uiso   1.00
C77    C     0.84466   0.35661   0.50597   0.00000  Uiso   1.00
C78    C     0.34225   0.85908   0.69553   0.00000  Uiso   1.00
C79    C     0.15537   0.64339   0.50597   0.00000  Uiso   1.00
C80    C     0.65778   0.14092   0.69553   0.00000  Uiso   1.00
H1     H     0.91239   0.52683   0.23671   0.00000  Uiso   1.00
H2     H     0.41245   0.02680   0.47123   0.00000  Uiso   1.00
H3     H     0.08764   0.47316   0.23671   0.00000  Uiso   1.00
H4     H     0.58758   0.97320   0.47123   0.00000  Uiso   1.00
H5     H     0.91239   0.47316   0.23671   0.00000  Uiso   1.00
H6     H     0.41245   0.97320   0.47123   0.00000  Uiso   1.00
H7     H     0.08764   0.52683   0.23671   0.00000  Uiso   1.00
H8     H     0.58758   0.02680   0.47123   0.00000  Uiso   1.00
H9     H     0.90621   0.55600   0.73726   0.00000  Uiso   1.00
H10    H     0.40637   0.05614   0.97334   0.00000  Uiso   1.00
H11    H     0.09382   0.44400   0.73726   0.00000  Uiso   1.00
H12    H     0.59366   0.94386   0.97334   0.00000  Uiso   1.00
H13    H     0.90621   0.44400   0.73726   0.00000  Uiso   1.00
H14    H     0.40637   0.94386   0.97334   0.00000  Uiso   1.00
H15    H     0.09382   0.55600   0.73726   0.00000  Uiso   1.00
H16    H     0.59366   0.05614   0.97334   0.00000  Uiso   1.00
H17    H     0.85470   0.58758   0.76842   0.00000  Uiso   1.00
H18    H     0.35394   0.08665   0.98675   0.00000  Uiso   1.00
H19    H     0.14533   0.41241   0.76842   0.00000  Uiso   1.00
H20    H     0.64609   0.91335   0.98675   0.00000  Uiso   1.00
H21    H     0.85470   0.41241   0.76842   0.00000  Uiso   1.00
H22    H     0.35394   0.91335   0.98675   0.00000  Uiso   1.00
H23    H     0.14533   0.58758   0.76842   0.00000  Uiso   1.00
H24    H     0.64609   0.08665   0.98675   0.00000  Uiso   1.00
H25    H     0.90470   0.65406   0.15793   0.00000  Uiso   1.00
H26    H     0.40350   0.15301   0.37148   0.00000  Uiso   1.00
H27    H     0.09533   0.34594   0.15793   0.00000  Uiso   1.00
H28    H     0.59653   0.84699   0.37148   0.00000  Uiso   1.00
H29    H     0.90470   0.34594   0.15793   0.00000  Uiso   1.00
H30    H     0.40350   0.84699   0.37148   0.00000  Uiso   1.00
H31    H     0.09533   0.65406   0.15793   0.00000  Uiso   1.00
H32    H     0.59653   0.15301   0.37148   0.00000  Uiso   1.00
H33    H     0.95482   0.62100   0.10102   0.00000  Uiso   1.00
H34    H     0.45470   0.12095   0.33314   0.00000  Uiso   1.00
H35    H     0.04521   0.37900   0.10102   0.00000  Uiso   1.00
H36    H     0.54533   0.87905   0.33314   0.00000  Uiso   1.00
H37    H     0.95482   0.37900   0.10102   0.00000  Uiso   1.00
H38    H     0.45470   0.87905   0.33314   0.00000  Uiso   1.00
H39    H     0.04521   0.62100   0.10102   0.00000  Uiso   1.00
H40    H     0.54533   0.12095   0.33314   0.00000  Uiso   1.00
H41    H     0.82330   0.63522   0.63655   0.00000  Uiso   1.00
H42    H     0.32126   0.13281   0.83169   0.00000  Uiso   1.00
H43    H     0.17673   0.36478   0.63655   0.00000  Uiso   1.00
H44    H     0.67877   0.86719   0.83169   0.00000  Uiso   1.00
H45    H     0.82330   0.36478   0.63655   0.00000  Uiso   1.00
H46    H     0.32126   0.86719   0.83169   0.00000  Uiso   1.00
H47    H     0.17673   0.63522   0.63655   0.00000  Uiso   1.00
H48    H     0.67877   0.13281   0.83169   0.00000  Uiso   1.00
N1     N     0.84382   0.67247   0.38157   0.00000  Uiso   1.00
N2     N     0.33944   0.16858   0.53970   0.00000  Uiso   1.00
N3     N     0.15621   0.32753   0.38157   0.00000  Uiso   1.00
N4     N     0.66059   0.83142   0.53970   0.00000  Uiso   1.00
N5     N     0.84382   0.32753   0.38157   0.00000  Uiso   1.00
N6     N     0.33944   0.83142   0.53970   0.00000  Uiso   1.00
N7     N     0.15621   0.67247   0.38157   0.00000  Uiso   1.00
N8     N     0.66059   0.16858   0.53970   0.00000  Uiso   1.00
C81    C     0.00001   0.58084   0.43320   0.00000  Uiso   1.00
C82    C     0.00001   0.41916   0.43320   0.00000  Uiso   1.00
C83    C     0.50001   0.08094   0.66758   0.00000  Uiso   1.00
C84    C     0.50001   0.91906   0.66758   0.00000  Uiso   1.00
C85    C     0.00001   0.48340   0.34071   0.00000  Uiso   1.00
C86    C     0.00001   0.51660   0.34071   0.00000  Uiso   1.00
C87    C     0.50001   0.98339   0.57769   0.00000  Uiso   1.00
C88    C     0.50001   0.01661   0.57769   0.00000  Uiso   1.00
H49    H     0.00001   0.60377   0.49755   0.00000  Uiso   1.00
H50    H     0.00001   0.39623   0.49755   0.00000  Uiso   1.00
H51    H     0.50001   0.10392   0.72989   0.00000  Uiso   1.00
H52    H     0.50001   0.89608   0.72989   0.00000  Uiso   1.00
C89    C     0.18185   0.30561   0.39460   0.00000  Uiso   1.00
C90    C     0.17261   0.27580   0.28335   0.00000  Uiso   1.00
C91    C     0.19725   0.25136   0.29872   0.00000  Uiso   1.00
C92    C     0.23180   0.25686   0.42401   0.00000  Uiso   1.00
N9     N     0.24006   0.28613   0.52164   0.00000  Uiso   1.00
C93    C     0.21684   0.31011   0.51211   0.00000  Uiso   1.00
H53    H     0.14768   0.27184   0.19156   0.00000  Uiso   1.00
H54    H     0.18998   0.22991   0.21674   0.00000  Uiso   1.00
H55    H     0.22524   0.33123   0.59175   0.00000  Uiso   1.00
C94    C     0.68833   0.81158   0.51746   0.00000  Uiso   1.00
C95    C     0.68148   0.78156   0.39783   0.00000  Uiso   1.00
N10    N     0.70808   0.76048   0.37316   0.00000  Uiso   1.00
C96    C     0.74247   0.76661   0.45461   0.00000  Uiso   1.00
C97    C     0.75077   0.79661   0.57180   0.00000  Uiso   1.00
C98    C     0.72373   0.81888   0.60357   0.00000  Uiso   1.00
H56    H     0.65634   0.77533   0.33010   0.00000  Uiso   1.00
H57    H     0.77616   0.80225   0.63823   0.00000  Uiso   1.00
H58    H     0.73011   0.84037   0.68920   0.00000  Uiso   1.00
C99    C     0.81818   0.69439   0.39460   0.00000  Uiso   1.00
C100   C     0.82742   0.72420   0.28335   0.00000  Uiso   1.00
C101   C     0.80278   0.74864   0.29872   0.00000  Uiso   1.00
C102   C     0.76823   0.74314   0.42401   0.00000  Uiso   1.00
N11    N     0.75997   0.71387   0.52164   0.00000  Uiso   1.00
C103   C     0.78319   0.68989   0.51211   0.00000  Uiso   1.00
H59    H     0.85235   0.72816   0.19156   0.00000  Uiso   1.00
H60    H     0.81005   0.77009   0.21674   0.00000  Uiso   1.00
H61    H     0.77479   0.66877   0.59175   0.00000  Uiso   1.00
C104   C     0.31170   0.18842   0.51746   0.00000  Uiso   1.00
C105   C     0.31855   0.21844   0.39783   0.00000  Uiso   1.00
N12    N     0.29195   0.23952   0.37316   0.00000  Uiso   1.00
C106   C     0.25756   0.23339   0.45461   0.00000  Uiso   1.00
C107   C     0.24926   0.20339   0.57180   0.00000  Uiso   1.00
C108   C     0.27630   0.18111   0.60357   0.00000  Uiso   1.00
H62    H     0.34368   0.22467   0.33010   0.00000  Uiso   1.00
H63    H     0.22387   0.19775   0.63823   0.00000  Uiso   1.00
H64    H     0.26991   0.15963   0.68920   0.00000  Uiso   1.00
C109   C     0.18185   0.69439   0.39460   0.00000  Uiso   1.00
C110   C     0.17261   0.72420   0.28335   0.00000  Uiso   1.00
C111   C     0.19725   0.74864   0.29872   0.00000  Uiso   1.00
C112   C     0.23180   0.74314   0.42401   0.00000  Uiso   1.00
N13    N     0.24006   0.71387   0.52164   0.00000  Uiso   1.00
C113   C     0.21684   0.68989   0.51211   0.00000  Uiso   1.00
H65    H     0.14768   0.72816   0.19156   0.00000  Uiso   1.00
H66    H     0.18998   0.77009   0.21674   0.00000  Uiso   1.00
H67    H     0.22524   0.66877   0.59175   0.00000  Uiso   1.00
C114   C     0.68833   0.18842   0.51746   0.00000  Uiso   1.00
C115   C     0.68148   0.21844   0.39783   0.00000  Uiso   1.00
N14    N     0.70808   0.23952   0.37316   0.00000  Uiso   1.00
C116   C     0.74247   0.23339   0.45461   0.00000  Uiso   1.00
C117   C     0.75077   0.20339   0.57180   0.00000  Uiso   1.00
C118   C     0.72373   0.18111   0.60357   0.00000  Uiso   1.00
H68    H     0.65634   0.22467   0.33010   0.00000  Uiso   1.00
H69    H     0.77616   0.19775   0.63823   0.00000  Uiso   1.00
H70    H     0.73011   0.15963   0.68920   0.00000  Uiso   1.00
C119   C     0.81818   0.30561   0.39460   0.00000  Uiso   1.00
C120   C     0.82742   0.27580   0.28335   0.00000  Uiso   1.00
C121   C     0.80278   0.25136   0.29872   0.00000  Uiso   1.00
C122   C     0.76823   0.25686   0.42401   0.00000  Uiso   1.00
N15    N     0.75997   0.28613   0.52164   0.00000  Uiso   1.00
C123   C     0.78319   0.31011   0.51211   0.00000  Uiso   1.00
H71    H     0.85235   0.27184   0.19156   0.00000  Uiso   1.00
H72    H     0.81005   0.22991   0.21674   0.00000  Uiso   1.00
H73    H     0.77479   0.33123   0.59175   0.00000  Uiso   1.00
C124   C     0.31170   0.81158   0.51746   0.00000  Uiso   1.00
C125   C     0.31855   0.78156   0.39783   0.00000  Uiso   1.00
N16    N     0.29195   0.76048   0.37316   0.00000  Uiso   1.00
C126   C     0.25756   0.76661   0.45461   0.00000  Uiso   1.00
C127   C     0.24926   0.79661   0.57180   0.00000  Uiso   1.00
C128   C     0.27630   0.81888   0.60357   0.00000  Uiso   1.00
H74    H     0.34368   0.77533   0.33010   0.00000  Uiso   1.00
H75    H     0.22387   0.80225   0.63823   0.00000  Uiso   1.00
H76    H     0.26991   0.84037   0.68920   0.00000  Uiso   1.00
loop_
_geom_bond_atom_site_label_1
_geom_bond_atom_site_label_2
_geom_bond_distance
_geom_bond_site_symmetry_2
_ccdc_geom_bond_type
C1     C13     1.412   .     S
C1     C21     1.428   .     S
C2     C14     1.412   .     S
C2     C87     1.428   .     S
C2     C22     1.429   .     S
C3     C23     1.428   .     S
C3     C86     1.428   .     S
C3     C15     1.412   .     S
C4     C16     1.412   .     S
C4     C88     1.428   .     S
C4     C24     1.429   .     S
C5     C17     1.428   .     S
C5     C9      1.412   .     S
C6     C10     1.412   .     S
C6     C88     1.428   .     S
C6     C18     1.429   .     S
C7     C85     1.428   .     S
C7     C11     1.412   .     S
C7     C19     1.428   .     S
C8     C12     1.412   .     S
C8     C87     1.428   .     S
C8     C20     1.429   .     S
C9     H1      1.019   .     S
C9     C13     1.397   .     S
C10    H2      1.019   .     S
C11    H3      1.019   .     S
C11    C15     1.397   .     S
C12    H4      1.019   .     S
C13    H5      1.019   .     S
C14    H6      1.019   .     S
C15    H7      1.019   .     S
C16    H8      1.019   .     S
C17    C25     1.427   .     S
C18    C83     1.413   .     S
C18    C26     1.426   .     S
C19    C82     1.413   .     S
C19    C27     1.427   .     S
C20    C84     1.413   .     S
C20    C28     1.426   .     S
C21    C29     1.427   .     S
C22    C30     1.426   .     S
C22    C84     1.413   .     S
C23    C81     1.413   .     S
C23    C31     1.427   .     S
C24    C83     1.413   .     S
C24    C32     1.426   .     S
C25    C65     1.419   .     S
C25    C33     1.415   .     S
C26    C66     1.419   .     S
C26    C34     1.415   .     S
C27    C67     1.419   .     S
C27    C35     1.415   .     S
C28    C36     1.415   .     S
C28    C68     1.419   .     S
C29    C69     1.419   .     S
C29    C37     1.415   .     S
C30    C38     1.415   .     S
C30    C70     1.419   .     S
C31    C71     1.419   .     S
C31    C39     1.415   .     S
C32    C72     1.419   .     S
C32    C40     1.415   .     S
C33    C41     1.407   .     S
C33    H9      1.019   .     S
C34    C42     1.407   .     S
C34    H10     1.019   .     S
C35    H11     1.019   .     S
C35    C43     1.407   .     S
C36    C44     1.407   .     S
C36    H12     1.019   .     S
C37    H13     1.019   .     S
C37    C45     1.407   .     S
C38    C46     1.407   .     S
C38    H14     1.019   .     S
C39    C47     1.407   .     S
C39    H15     1.019   .     S
C40    C48     1.407   .     S
C40    H16     1.019   .     S
C41    H17     1.024   .     S
C41    C49     1.413   .     S
C42    C50     1.413   .     S
C42    H18     1.024   .     S
C43    C51     1.413   .     S
C43    H19     1.024   .     S
C44    C52     1.413   .     S
C44    H20     1.024   .     S
C45    C53     1.413   .     S
C45    H21     1.024   .     S
C46    C54     1.413   .     S
C46    H22     1.024   .     S
C47    H23     1.024   .     S
C47    C55     1.413   .     S
C48    C56     1.413   .     S
C48    H24     1.024   .     S
C49    C73     1.410   .     S
C49    C57     1.414   .     S
C50    C74     1.410   .     S
C50    C58     1.414   .     S
C51    C75     1.410   .     S
C51    C59     1.414   .     S
C52    C60     1.414   .     S
C52    C76     1.410   .     S
C53    C77     1.410   .     S
C53    C61     1.414   .     S
C54    C62     1.414   .     S
C54    C78     1.410   .     S
C55    C79     1.410   .     S
C55    C63     1.414   .     S
C56    C80     1.410   .     S
C56    C64     1.414   .     S
C57    H25     1.024   .     S
C57    C65     1.407   .     S
C58    C66     1.408   .     S
C58    H26     1.024   .     S
C59    H27     1.024   .     S
C59    C67     1.407   .     S
C60    C68     1.408   .     S
C60    H28     1.024   .     S
C61    H29     1.024   .     S
C61    C69     1.407   .     S
C62    C70     1.408   .     S
C62    H30     1.024   .     S
C63    H31     1.024   .     S
C63    C71     1.407   .     S
C64    C72     1.408   .     S
C64    H32     1.024   .     S
C65    H33     1.023   .     S
C66    H34     1.023   .     S
C67    H35     1.023   .     S
C68    H36     1.023   .     S
C69    H37     1.023   .     S
C70    H38     1.023   .     S
C71    H39     1.023   .     S
C72    H40     1.023   .     S
C73    H41     1.023   .     S
C73    N1      1.354   .     S
C74    H42     1.023   .     S
C74    N2      1.354   .     S
C75    H43     1.023   .     S
C75    N3      1.354   .     S
C76    N4      1.354   .     S
C76    H44     1.023   .     S
C77    H45     1.023   .     S
C77    N5      1.354   .     S
C78    N6      1.354   .     S
C78    H46     1.023   .     S
C79    H47     1.023   .     S
C79    N7      1.354   .     S
C80    H48     1.023   .     S
C80    N8      1.354   .     S
N1     C99     1.355   .     S
N2     C104    1.355   .     S
N3     C89     1.355   .     S
N4     C94     1.355   .     S
N5     C119    1.355   .     S
N6     C124    1.355   .     S
N7     C109    1.355   .     S
N8     C114    1.355   .     S
C81    H49     1.025   .     S
C82    H50     1.025   .     S
C83    H51     1.025   .     S
C84    H52     1.025   .     S
C85    C86     1.437   .     S
C89    C90     1.408   .     S
C89    C93     1.413   .     S
C90    H53     1.023   .     S
C90    C91     1.409   .     S
C91    C92     1.415   .     S
C91    H54     1.022   .     S
C92    N9      1.362   .     S
C92    C106    1.410   .     S
N9     C93     1.358   .     S
C93    H55     1.018   .     S
C94    C98     1.413   .     S
C94    C95     1.409   .     S
C95    H56     1.021   .     S
C95    N10     1.359   .     S
N10    C96     1.362   .     S
C96    C97     1.415   .     S
C96    C102    1.410   .     S
C97    H57     1.022   .     S
C97    C98     1.408   .     S
C98    H58     1.020   .     S
C99    C100    1.408   .     S
C99    C103    1.413   .     S
C100   H59     1.023   .     S
C100   C101    1.409   .     S
C101   H60     1.022   .     S
C101   C102    1.415   .     S
C102   N11     1.362   .     S
N11    C103    1.358   .     S
C103   H61     1.018   .     S
C104   C108    1.413   .     S
C104   C105    1.409   .     S
C105   N12     1.359   .     S
C105   H62     1.021   .     S
N12    C106    1.362   .     S
C106   C107    1.415   .     S
C107   C108    1.408   .     S
C107   H63     1.022   .     S
C108   H64     1.020   .     S
C109   C110    1.408   .     S
C109   C113    1.413   .     S
C110   H65     1.023   .     S
C110   C111    1.409   .     S
C111   C112    1.415   .     S
C111   H66     1.022   .     S
C112   C126    1.410   .     S
C112   N13     1.362   .     S
N13    C113    1.358   .     S
C113   H67     1.018   .     S
C114   C118    1.413   .     S
C114   C115    1.409   .     S
C115   H68     1.021   .     S
C115   N14     1.359   .     S
N14    C116    1.362   .     S
C116   C117    1.415   .     S
C116   C122    1.410   .     S
C117   C118    1.408   .     S
C117   H69     1.022   .     S
C118   H70     1.020   .     S
C119   C120    1.408   .     S
C119   C123    1.413   .     S
C120   C121    1.409   .     S
C120   H71     1.023   .     S
C121   C122    1.415   .     S
C121   H72     1.022   .     S
C122   N15     1.362   .     S
N15    C123    1.358   .     S
C123   H73     1.018   .     S
C124   C128    1.413   .     S
C124   C125    1.409   .     S
C125   N16     1.359   .     S
C125   H74     1.021   .     S
N16    C126    1.362   .     S
C126   C127    1.415   .     S
C127   H75     1.022   .     S
C127   C128    1.408   .     S
C128   H76     1.020   .     S
