data_Py-23-BPYPH_COF
_audit_creation_date              2016-12-13
_audit_creation_method            'Materials Studio'
_symmetry_space_group_name_H-M    'P1'
_symmetry_Int_Tables_number       1
_symmetry_cell_setting            triclinic
loop_
_symmetry_equiv_pos_as_xyz
  x,y,z
_cell_length_a                    37.8006
_cell_length_b                    43.2645
_cell_length_c                    3.9593
_cell_angle_alpha                 90.0000
_cell_angle_beta                  90.0000
_cell_angle_gamma                 90.0000
loop_
_atom_site_label
_atom_site_type_symbol
_atom_site_fract_x
_atom_site_fract_y
_atom_site_fract_z
_atom_site_U_iso_or_equiv
_atom_site_adp_type
_atom_site_occupancy
C1     C     0.96743   0.46668   0.46389   0.00000  Uiso   1.00
C2     C     0.46743   0.96668   0.46389   0.00000  Uiso   1.00
C3     C     0.03260   0.53332   0.46389   0.00000  Uiso   1.00
C4     C     0.53260   0.03332   0.46389   0.00000  Uiso   1.00
C5     C     0.96743   0.53332   0.46389   0.00000  Uiso   1.00
C6     C     0.46743   0.03332   0.46389   0.00000  Uiso   1.00
C7     C     0.03260   0.46668   0.46389   0.00000  Uiso   1.00
C8     C     0.53260   0.96668   0.46389   0.00000  Uiso   1.00
C9     C     0.93634   0.51614   0.40143   0.00000  Uiso   1.00
C10    C     0.43634   0.01614   0.40143   0.00000  Uiso   1.00
C11    C     0.06369   0.48386   0.40143   0.00000  Uiso   1.00
C12    C     0.56369   0.98386   0.40143   0.00000  Uiso   1.00
C13    C     0.93634   0.48386   0.40143   0.00000  Uiso   1.00
C14    C     0.43634   0.98386   0.40143   0.00000  Uiso   1.00
C15    C     0.06369   0.51614   0.40143   0.00000  Uiso   1.00
C16    C     0.56369   0.01614   0.40143   0.00000  Uiso   1.00
C17    C     0.96704   0.56598   0.51628   0.00000  Uiso   1.00
C18    C     0.46704   0.06598   0.51628   0.00000  Uiso   1.00
C19    C     0.03298   0.43402   0.51628   0.00000  Uiso   1.00
C20    C     0.53298   0.93402   0.51628   0.00000  Uiso   1.00
C21    C     0.96704   0.43402   0.51628   0.00000  Uiso   1.00
C22    C     0.46704   0.93402   0.51628   0.00000  Uiso   1.00
C23    C     0.03298   0.56598   0.51628   0.00000  Uiso   1.00
C24    C     0.53298   0.06598   0.51628   0.00000  Uiso   1.00
C25    C     0.93614   0.58486   0.53435   0.00000  Uiso   1.00
C26    C     0.43614   0.08486   0.53435   0.00000  Uiso   1.00
C27    C     0.06389   0.41514   0.53435   0.00000  Uiso   1.00
C28    C     0.56389   0.91514   0.53435   0.00000  Uiso   1.00
C29    C     0.93614   0.41514   0.53435   0.00000  Uiso   1.00
C30    C     0.43614   0.91514   0.53435   0.00000  Uiso   1.00
C31    C     0.06389   0.58486   0.53435   0.00000  Uiso   1.00
C32    C     0.56389   0.08486   0.53435   0.00000  Uiso   1.00
C33    C     0.90592   0.57621   0.72310   0.00000  Uiso   1.00
C34    C     0.40592   0.07621   0.72310   0.00000  Uiso   1.00
C35    C     0.09411   0.42379   0.72310   0.00000  Uiso   1.00
C36    C     0.59411   0.92379   0.72310   0.00000  Uiso   1.00
C37    C     0.90592   0.42379   0.72310   0.00000  Uiso   1.00
C38    C     0.40592   0.92379   0.72310   0.00000  Uiso   1.00
C39    C     0.09411   0.57621   0.72310   0.00000  Uiso   1.00
C40    C     0.59411   0.07621   0.72310   0.00000  Uiso   1.00
C41    C     0.87546   0.59488   0.73640   0.00000  Uiso   1.00
C42    C     0.37546   0.09488   0.73640   0.00000  Uiso   1.00
C43    C     0.12457   0.40512   0.73640   0.00000  Uiso   1.00
C44    C     0.62457   0.90512   0.73640   0.00000  Uiso   1.00
C45    C     0.87546   0.40512   0.73640   0.00000  Uiso   1.00
C46    C     0.37546   0.90512   0.73640   0.00000  Uiso   1.00
C47    C     0.12457   0.59488   0.73640   0.00000  Uiso   1.00
C48    C     0.62457   0.09488   0.73640   0.00000  Uiso   1.00
C49    C     0.87450   0.62387   0.57235   0.00000  Uiso   1.00
C50    C     0.37450   0.12387   0.57235   0.00000  Uiso   1.00
C51    C     0.12553   0.37613   0.57235   0.00000  Uiso   1.00
C52    C     0.62553   0.87613   0.57235   0.00000  Uiso   1.00
C53    C     0.87450   0.37613   0.57235   0.00000  Uiso   1.00
C54    C     0.37450   0.87613   0.57235   0.00000  Uiso   1.00
C55    C     0.12553   0.62387   0.57235   0.00000  Uiso   1.00
C56    C     0.62553   0.12387   0.57235   0.00000  Uiso   1.00
C57    C     0.90484   0.63318   0.39011   0.00000  Uiso   1.00
C58    C     0.40484   0.13318   0.39011   0.00000  Uiso   1.00
C59    C     0.09519   0.36682   0.39011   0.00000  Uiso   1.00
C60    C     0.59519   0.86682   0.39011   0.00000  Uiso   1.00
C61    C     0.90484   0.36682   0.39011   0.00000  Uiso   1.00
C62    C     0.40484   0.86682   0.39011   0.00000  Uiso   1.00
C63    C     0.09519   0.63318   0.39011   0.00000  Uiso   1.00
C64    C     0.59519   0.13318   0.39011   0.00000  Uiso   1.00
C65    C     0.93474   0.61390   0.36805   0.00000  Uiso   1.00
C66    C     0.43475   0.11390   0.36805   0.00000  Uiso   1.00
C67    C     0.06528   0.38610   0.36805   0.00000  Uiso   1.00
C68    C     0.56528   0.88610   0.36805   0.00000  Uiso   1.00
C69    C     0.93474   0.38610   0.36805   0.00000  Uiso   1.00
C70    C     0.43475   0.88610   0.36805   0.00000  Uiso   1.00
C71    C     0.06528   0.61390   0.36805   0.00000  Uiso   1.00
C72    C     0.56528   0.11390   0.36805   0.00000  Uiso   1.00
C73    C     0.84402   0.64253   0.59443   0.00000  Uiso   1.00
C74    C     0.34402   0.14253   0.59443   0.00000  Uiso   1.00
C75    C     0.15601   0.35747   0.59443   0.00000  Uiso   1.00
C76    C     0.65601   0.85746   0.59443   0.00000  Uiso   1.00
C77    C     0.84402   0.35747   0.59443   0.00000  Uiso   1.00
C78    C     0.34402   0.85746   0.59443   0.00000  Uiso   1.00
C79    C     0.15601   0.64253   0.59443   0.00000  Uiso   1.00
C80    C     0.65601   0.14253   0.59443   0.00000  Uiso   1.00
H1     H     0.91279   0.52679   0.35653   0.00000  Uiso   1.00
H2     H     0.41279   0.02679   0.35653   0.00000  Uiso   1.00
H3     H     0.08724   0.47321   0.35653   0.00000  Uiso   1.00
H4     H     0.58724   0.97321   0.35653   0.00000  Uiso   1.00
H5     H     0.91279   0.47321   0.35653   0.00000  Uiso   1.00
H6     H     0.41279   0.97321   0.35653   0.00000  Uiso   1.00
H7     H     0.08724   0.52679   0.35653   0.00000  Uiso   1.00
H8     H     0.58724   0.02679   0.35653   0.00000  Uiso   1.00
H9     H     0.90590   0.55614   0.85751   0.00000  Uiso   1.00
H10    H     0.40590   0.05614   0.85751   0.00000  Uiso   1.00
H11    H     0.09413   0.44386   0.85751   0.00000  Uiso   1.00
H12    H     0.59413   0.94386   0.85751   0.00000  Uiso   1.00
H13    H     0.90590   0.44386   0.85751   0.00000  Uiso   1.00
H14    H     0.40590   0.94386   0.85751   0.00000  Uiso   1.00
H15    H     0.09413   0.55614   0.85751   0.00000  Uiso   1.00
H16    H     0.59413   0.05614   0.85751   0.00000  Uiso   1.00
H17    H     0.85417   0.58729   0.87307   0.00000  Uiso   1.00
H18    H     0.35417   0.08729   0.87307   0.00000  Uiso   1.00
H19    H     0.14586   0.41271   0.87307   0.00000  Uiso   1.00
H20    H     0.64585   0.91271   0.87307   0.00000  Uiso   1.00
H21    H     0.85417   0.41271   0.87307   0.00000  Uiso   1.00
H22    H     0.35417   0.91271   0.87307   0.00000  Uiso   1.00
H23    H     0.14586   0.58729   0.87307   0.00000  Uiso   1.00
H24    H     0.64585   0.08729   0.87307   0.00000  Uiso   1.00
H25    H     0.90520   0.65400   0.26719   0.00000  Uiso   1.00
H26    H     0.40520   0.15400   0.26719   0.00000  Uiso   1.00
H27    H     0.09483   0.34600   0.26719   0.00000  Uiso   1.00
H28    H     0.59483   0.84600   0.26719   0.00000  Uiso   1.00
H29    H     0.90520   0.34600   0.26719   0.00000  Uiso   1.00
H30    H     0.40520   0.84600   0.26719   0.00000  Uiso   1.00
H31    H     0.09483   0.65400   0.26719   0.00000  Uiso   1.00
H32    H     0.59483   0.15400   0.26719   0.00000  Uiso   1.00
H33    H     0.95558   0.62129   0.22420   0.00000  Uiso   1.00
H34    H     0.45559   0.12129   0.22420   0.00000  Uiso   1.00
H35    H     0.04444   0.37871   0.22420   0.00000  Uiso   1.00
H36    H     0.54444   0.87871   0.22420   0.00000  Uiso   1.00
H37    H     0.95558   0.37871   0.22420   0.00000  Uiso   1.00
H38    H     0.45559   0.87871   0.22420   0.00000  Uiso   1.00
H39    H     0.04444   0.62129   0.22420   0.00000  Uiso   1.00
H40    H     0.54444   0.12129   0.22420   0.00000  Uiso   1.00
H41    H     0.82229   0.63404   0.71737   0.00000  Uiso   1.00
H42    H     0.32229   0.13404   0.71737   0.00000  Uiso   1.00
H43    H     0.17773   0.36596   0.71737   0.00000  Uiso   1.00
H44    H     0.67773   0.86596   0.71737   0.00000  Uiso   1.00
H45    H     0.82229   0.36596   0.71737   0.00000  Uiso   1.00
H46    H     0.32229   0.86596   0.71737   0.00000  Uiso   1.00
H47    H     0.17773   0.63404   0.71737   0.00000  Uiso   1.00
H48    H     0.67773   0.13404   0.71737   0.00000  Uiso   1.00
N1     N     0.84294   0.67143   0.46361   0.00000  Uiso   1.00
N2     N     0.34294   0.17143   0.46361   0.00000  Uiso   1.00
N3     N     0.15708   0.32857   0.46361   0.00000  Uiso   1.00
N4     N     0.65708   0.82857   0.46361   0.00000  Uiso   1.00
N5     N     0.84294   0.32857   0.46361   0.00000  Uiso   1.00
N6     N     0.34294   0.82857   0.46361   0.00000  Uiso   1.00
N7     N     0.15708   0.67143   0.46361   0.00000  Uiso   1.00
N8     N     0.65708   0.17143   0.46361   0.00000  Uiso   1.00
C81    C     0.00001   0.58086   0.55988   0.00000  Uiso   1.00
C82    C     0.50001   0.08086   0.55988   0.00000  Uiso   1.00
C83    C     0.00001   0.41914   0.55988   0.00000  Uiso   1.00
C84    C     0.50001   0.91914   0.55988   0.00000  Uiso   1.00
C85    C     0.00001   0.48339   0.46596   0.00000  Uiso   1.00
C86    C     0.50001   0.98339   0.46596   0.00000  Uiso   1.00
C87    C     0.00001   0.51661   0.46596   0.00000  Uiso   1.00
C88    C     0.50001   0.01661   0.46596   0.00000  Uiso   1.00
H49    H     0.00001   0.60377   0.62598   0.00000  Uiso   1.00
H50    H     0.50001   0.10377   0.62598   0.00000  Uiso   1.00
H51    H     0.00001   0.39623   0.62598   0.00000  Uiso   1.00
H52    H     0.50001   0.89623   0.62598   0.00000  Uiso   1.00
C89    C     0.18374   0.30764   0.45428   0.00000  Uiso   1.00
C90    C     0.17489   0.27715   0.36354   0.00000  Uiso   1.00
C91    C     0.20094   0.25389   0.35447   0.00000  Uiso   1.00
C92    C     0.23648   0.26124   0.43200   0.00000  Uiso   1.00
N9     N     0.24419   0.29115   0.51234   0.00000  Uiso   1.00
C93    C     0.21960   0.31401   0.52693   0.00000  Uiso   1.00
H53    H     0.14926   0.27179   0.30516   0.00000  Uiso   1.00
H54    H     0.19400   0.23181   0.28994   0.00000  Uiso   1.00
H55    H     0.22763   0.33573   0.59008   0.00000  Uiso   1.00
C94    C     0.68374   0.80764   0.45428   0.00000  Uiso   1.00
C95    C     0.67489   0.77715   0.36354   0.00000  Uiso   1.00
C96    C     0.70094   0.75389   0.35447   0.00000  Uiso   1.00
C97    C     0.73648   0.76124   0.43200   0.00000  Uiso   1.00
N10    N     0.74419   0.79115   0.51234   0.00000  Uiso   1.00
C98    C     0.71960   0.81401   0.52693   0.00000  Uiso   1.00
H56    H     0.64926   0.77179   0.30516   0.00000  Uiso   1.00
H57    H     0.69400   0.73181   0.28994   0.00000  Uiso   1.00
H58    H     0.72763   0.83573   0.59008   0.00000  Uiso   1.00
C99    C     0.81629   0.69235   0.45428   0.00000  Uiso   1.00
C100   C     0.82514   0.72285   0.36354   0.00000  Uiso   1.00
C101   C     0.79909   0.74611   0.35447   0.00000  Uiso   1.00
C102   C     0.76354   0.73876   0.43200   0.00000  Uiso   1.00
N11    N     0.75583   0.70885   0.51234   0.00000  Uiso   1.00
C103   C     0.78042   0.68599   0.52693   0.00000  Uiso   1.00
H59    H     0.85077   0.72821   0.30516   0.00000  Uiso   1.00
H60    H     0.80603   0.76819   0.28994   0.00000  Uiso   1.00
H61    H     0.77240   0.66427   0.59008   0.00000  Uiso   1.00
C104   C     0.31629   0.19235   0.45428   0.00000  Uiso   1.00
C105   C     0.32514   0.22285   0.36354   0.00000  Uiso   1.00
C106   C     0.29909   0.24611   0.35447   0.00000  Uiso   1.00
C107   C     0.26354   0.23876   0.43200   0.00000  Uiso   1.00
N12    N     0.25583   0.20885   0.51234   0.00000  Uiso   1.00
C108   C     0.28042   0.18599   0.52693   0.00000  Uiso   1.00
H62    H     0.35077   0.22821   0.30516   0.00000  Uiso   1.00
H63    H     0.30603   0.26819   0.28994   0.00000  Uiso   1.00
H64    H     0.27240   0.16427   0.59008   0.00000  Uiso   1.00
C109   C     0.18374   0.69235   0.45428   0.00000  Uiso   1.00
C110   C     0.17489   0.72285   0.36354   0.00000  Uiso   1.00
C111   C     0.20094   0.74611   0.35447   0.00000  Uiso   1.00
C112   C     0.23648   0.73876   0.43200   0.00000  Uiso   1.00
N13    N     0.24419   0.70885   0.51234   0.00000  Uiso   1.00
C113   C     0.21960   0.68599   0.52693   0.00000  Uiso   1.00
H65    H     0.14926   0.72821   0.30516   0.00000  Uiso   1.00
H66    H     0.19400   0.76819   0.28994   0.00000  Uiso   1.00
H67    H     0.22763   0.66427   0.59008   0.00000  Uiso   1.00
C114   C     0.68374   0.19235   0.45428   0.00000  Uiso   1.00
C115   C     0.67489   0.22285   0.36354   0.00000  Uiso   1.00
C116   C     0.70094   0.24611   0.35447   0.00000  Uiso   1.00
C117   C     0.73648   0.23876   0.43200   0.00000  Uiso   1.00
N14    N     0.74419   0.20885   0.51234   0.00000  Uiso   1.00
C118   C     0.71960   0.18599   0.52693   0.00000  Uiso   1.00
H68    H     0.64926   0.22821   0.30516   0.00000  Uiso   1.00
H69    H     0.69400   0.26819   0.28994   0.00000  Uiso   1.00
H70    H     0.72763   0.16427   0.59008   0.00000  Uiso   1.00
C119   C     0.81629   0.30764   0.45428   0.00000  Uiso   1.00
C120   C     0.82514   0.27715   0.36354   0.00000  Uiso   1.00
C121   C     0.79909   0.25389   0.35447   0.00000  Uiso   1.00
C122   C     0.76354   0.26124   0.43200   0.00000  Uiso   1.00
N15    N     0.75583   0.29115   0.51234   0.00000  Uiso   1.00
C123   C     0.78042   0.31401   0.52693   0.00000  Uiso   1.00
H71    H     0.85077   0.27179   0.30516   0.00000  Uiso   1.00
H72    H     0.80603   0.23181   0.28994   0.00000  Uiso   1.00
H73    H     0.77240   0.33573   0.59008   0.00000  Uiso   1.00
C124   C     0.31629   0.80764   0.45428   0.00000  Uiso   1.00
C125   C     0.32514   0.77715   0.36354   0.00000  Uiso   1.00
C126   C     0.29909   0.75389   0.35447   0.00000  Uiso   1.00
C127   C     0.26354   0.76124   0.43200   0.00000  Uiso   1.00
N16    N     0.25583   0.79115   0.51234   0.00000  Uiso   1.00
C128   C     0.28042   0.81401   0.52693   0.00000  Uiso   1.00
H74    H     0.35077   0.77179   0.30516   0.00000  Uiso   1.00
H75    H     0.30603   0.73181   0.28994   0.00000  Uiso   1.00
H76    H     0.27240   0.83573   0.59008   0.00000  Uiso   1.00
loop_
_geom_bond_atom_site_label_1
_geom_bond_atom_site_label_2
_geom_bond_distance
_geom_bond_site_symmetry_2
_ccdc_geom_bond_type
C1     C21     1.429   .     S
C1     C13     1.412   .     S
C2     C86     1.428   .     S
C2     C22     1.429   .     S
C2     C14     1.412   .     S
C3     C23     1.429   .     S
C3     C87     1.428   .     S
C3     C15     1.412   .     S
C4     C88     1.428   .     S
C4     C24     1.429   .     S
C4     C16     1.412   .     S
C5     C17     1.429   .     S
C5     C9      1.412   .     S
C6     C88     1.428   .     S
C6     C18     1.429   .     S
C6     C10     1.412   .     S
C7     C85     1.428   .     S
C7     C19     1.429   .     S
C7     C11     1.412   .     S
C8     C86     1.428   .     S
C8     C20     1.429   .     S
C8     C12     1.412   .     S
C9     H1      1.018   .     S
C9     C13     1.397   .     S
C10    H2      1.018   .     S
C11    H3      1.018   .     S
C11    C15     1.397   .     S
C12    H4      1.018   .     S
C13    H5      1.018   .     S
C14    H6      1.018   .     S
C15    H7      1.018   .     S
C16    H8      1.018   .     S
C17    C25     1.427   .     S
C18    C82     1.413   .     S
C18    C26     1.427   .     S
C19    C83     1.413   .     S
C19    C27     1.427   .     S
C20    C84     1.413   .     S
C20    C28     1.427   .     S
C21    C29     1.427   .     S
C22    C30     1.427   .     S
C22    C84     1.413   .     S
C23    C81     1.413   .     S
C23    C31     1.427   .     S
C24    C82     1.413   .     S
C24    C32     1.427   .     S
C25    C33     1.416   .     S
C25    C65     1.419   .     S
C26    C34     1.416   .     S
C26    C66     1.419   .     S
C27    C35     1.416   .     S
C27    C67     1.419   .     S
C28    C36     1.416   .     S
C28    C68     1.419   .     S
C29    C37     1.416   .     S
C29    C69     1.419   .     S
C30    C38     1.416   .     S
C30    C70     1.419   .     S
C31    C39     1.416   .     S
C31    C71     1.419   .     S
C32    C40     1.416   .     S
C32    C72     1.419   .     S
C33    C41     1.407   .     S
C33    H9      1.019   .     S
C34    H10     1.019   .     S
C34    C42     1.407   .     S
C35    H11     1.019   .     S
C35    C43     1.407   .     S
C36    C44     1.407   .     S
C36    H12     1.019   .     S
C37    H13     1.019   .     S
C37    C45     1.407   .     S
C38    C46     1.407   .     S
C38    H14     1.019   .     S
C39    C47     1.407   .     S
C39    H15     1.019   .     S
C40    H16     1.019   .     S
C40    C48     1.407   .     S
C41    H17     1.024   .     S
C41    C49     1.413   .     S
C42    H18     1.024   .     S
C42    C50     1.413   .     S
C43    C51     1.413   .     S
C43    H19     1.024   .     S
C44    H20     1.024   .     S
C44    C52     1.413   .     S
C45    C53     1.413   .     S
C45    H21     1.024   .     S
C46    H22     1.024   .     S
C46    C54     1.413   .     S
C47    H23     1.024   .     S
C47    C55     1.413   .     S
C48    H24     1.024   .     S
C48    C56     1.413   .     S
C49    C73     1.410   .     S
C49    C57     1.413   .     S
C50    C74     1.410   .     S
C50    C58     1.413   .     S
C51    C75     1.410   .     S
C51    C59     1.413   .     S
C52    C76     1.410   .     S
C52    C60     1.413   .     S
C53    C77     1.410   .     S
C53    C61     1.413   .     S
C54    C78     1.410   .     S
C54    C62     1.413   .     S
C55    C79     1.410   .     S
C55    C63     1.413   .     S
C56    C80     1.410   .     S
C56    C64     1.413   .     S
C57    H25     1.024   .     S
C57    C65     1.408   .     S
C58    H26     1.024   .     S
C58    C66     1.408   .     S
C59    H27     1.024   .     S
C59    C67     1.408   .     S
C60    C68     1.408   .     S
C60    H28     1.024   .     S
C61    H29     1.024   .     S
C61    C69     1.408   .     S
C62    C70     1.408   .     S
C62    H30     1.024   .     S
C63    H31     1.024   .     S
C63    C71     1.408   .     S
C64    H32     1.024   .     S
C64    C72     1.408   .     S
C65    H33     1.023   .     S
C66    H34     1.023   .     S
C67    H35     1.023   .     S
C68    H36     1.023   .     S
C69    H37     1.023   .     S
C70    H38     1.023   .     S
C71    H39     1.023   .     S
C72    H40     1.023   .     S
C73    H41     1.023   .     S
C73    N1      1.354   .     S
C74    H42     1.023   .     S
C74    N2      1.354   .     S
C75    H43     1.023   .     S
C75    N3      1.354   .     S
C76    N4      1.354   .     S
C76    H44     1.023   .     S
C77    H45     1.023   .     S
C77    N5      1.354   .     S
C78    N6      1.354   .     S
C78    H46     1.023   .     S
C79    H47     1.023   .     S
C79    N7      1.354   .     S
C80    H48     1.023   .     S
C80    N8      1.354   .     S
N1     C99     1.355   .     S
N2     C104    1.355   .     S
N3     C89     1.355   .     S
N4     C94     1.355   .     S
N5     C119    1.355   .     S
N6     C124    1.355   .     S
N7     C109    1.355   .     S
N8     C114    1.355   .     S
C81    H49     1.025   .     S
C82    H50     1.025   .     S
C83    H51     1.025   .     S
C84    H52     1.025   .     S
C85    C87     1.437   .     S
C89    C93     1.413   .     S
C89    C90     1.408   .     S
C90    H53     1.023   .     S
C90    C91     1.409   .     S
C91    C92     1.414   .     S
C91    H54     1.023   .     S
C92    C107    1.412   .     S
C92    N9      1.364   .     S
N9     C93     1.358   .     S
C93    H55     1.019   .     S
C94    C98     1.413   .     S
C94    C95     1.408   .     S
C95    C96     1.409   .     S
C95    H56     1.023   .     S
C96    C97     1.414   .     S
C96    H57     1.023   .     S
C97    C102    1.412   .     S
C97    N10     1.364   .     S
N10    C98     1.358   .     S
C98    H58     1.019   .     S
C99    C103    1.413   .     S
C99    C100    1.408   .     S
C100   H59     1.023   .     S
C100   C101    1.409   .     S
C101   H60     1.023   .     S
C101   C102    1.414   .     S
C102   N11     1.364   .     S
N11    C103    1.358   .     S
C103   H61     1.019   .     S
C104   C108    1.413   .     S
C104   C105    1.408   .     S
C105   H62     1.023   .     S
C105   C106    1.409   .     S
C106   H63     1.023   .     S
C106   C107    1.414   .     S
C107   N12     1.364   .     S
N12    C108    1.358   .     S
C108   H64     1.019   .     S
C109   C113    1.413   .     S
C109   C110    1.408   .     S
C110   H65     1.023   .     S
C110   C111    1.409   .     S
C111   H66     1.023   .     S
C111   C112    1.414   .     S
C112   C127    1.412   .     S
C112   N13     1.364   .     S
N13    C113    1.358   .     S
C113   H67     1.019   .     S
C114   C118    1.413   .     S
C114   C115    1.408   .     S
C115   H68     1.023   .     S
C115   C116    1.409   .     S
C116   H69     1.023   .     S
C116   C117    1.414   .     S
C117   C122    1.412   .     S
C117   N14     1.364   .     S
N14    C118    1.358   .     S
C118   H70     1.019   .     S
C119   C123    1.413   .     S
C119   C120    1.408   .     S
C120   C121    1.409   .     S
C120   H71     1.023   .     S
C121   C122    1.414   .     S
C121   H72     1.023   .     S
C122   N15     1.364   .     S
N15    C123    1.358   .     S
C123   H73     1.019   .     S
C124   C128    1.413   .     S
C124   C125    1.408   .     S
C125   C126    1.409   .     S
C125   H74     1.023   .     S
C126   C127    1.414   .     S
C126   H75     1.023   .     S
C127   N16     1.364   .     S
N16    C128    1.358   .     S
C128   H76     1.019   .     S
