data_Py-23-DHPh_COF
_audit_creation_date              2016-12-13
_audit_creation_method            'Materials Studio'
_symmetry_space_group_name_H-M    'P1'
_symmetry_Int_Tables_number       1
_symmetry_cell_setting            triclinic
loop_
_symmetry_equiv_pos_as_xyz
  x,y,z
_cell_length_a                    33.2473
_cell_length_b                    35.5954
_cell_length_c                    7.4146
_cell_angle_alpha                 90.0000
_cell_angle_beta                  90.0000
_cell_angle_gamma                 90.0000
loop_
_atom_site_label
_atom_site_type_symbol
_atom_site_fract_x
_atom_site_fract_y
_atom_site_fract_z
_atom_site_U_iso_or_equiv
_atom_site_adp_type
_atom_site_occupancy
C1     C     0.46289   0.95971  -0.04532   0.00000  Uiso   1.00
C2     C     0.96289   0.45971  -0.04532   0.00000  Uiso   1.00
C3     C     0.53711   0.04029  -0.04532   0.00000  Uiso   1.00
C4     C     0.03711   0.54029  -0.04532   0.00000  Uiso   1.00
C5     C     0.46289   0.04029  -0.04532   0.00000  Uiso   1.00
C6     C     0.96289   0.54029  -0.04532   0.00000  Uiso   1.00
C7     C     0.53711   0.95971  -0.04532   0.00000  Uiso   1.00
C8     C     0.03711   0.45971  -0.04532   0.00000  Uiso   1.00
C9     C     0.42664   0.01964  -0.05406   0.00000  Uiso   1.00
C10    C     0.92664   0.51964  -0.05406   0.00000  Uiso   1.00
C11    C     0.57337   0.98035  -0.05406   0.00000  Uiso   1.00
C12    C     0.07336   0.48035  -0.05406   0.00000  Uiso   1.00
C13    C     0.42664   0.98035  -0.05406   0.00000  Uiso   1.00
C14    C     0.92664   0.48035  -0.05406   0.00000  Uiso   1.00
C15    C     0.57337   0.01964  -0.05406   0.00000  Uiso   1.00
C16    C     0.07336   0.51964  -0.05406   0.00000  Uiso   1.00
C17    C     0.46300   0.08022  -0.03479   0.00000  Uiso   1.00
C18    C     0.96300   0.58022  -0.03479   0.00000  Uiso   1.00
C19    C     0.53700   0.91978  -0.03479   0.00000  Uiso   1.00
C20    C     0.03700   0.41978  -0.03479   0.00000  Uiso   1.00
C21    C     0.46300   0.91978  -0.03479   0.00000  Uiso   1.00
C22    C     0.96300   0.41978  -0.03479   0.00000  Uiso   1.00
C23    C     0.53700   0.08022  -0.03479   0.00000  Uiso   1.00
C24    C     0.03700   0.58022  -0.03479   0.00000  Uiso   1.00
C25    C     0.42779   0.10203  -0.01498   0.00000  Uiso   1.00
C26    C     0.92779   0.60203  -0.01498   0.00000  Uiso   1.00
C27    C     0.57222   0.89797  -0.01498   0.00000  Uiso   1.00
C28    C     0.07221   0.39797  -0.01498   0.00000  Uiso   1.00
C29    C     0.42779   0.89797  -0.01498   0.00000  Uiso   1.00
C30    C     0.92779   0.39797  -0.01498   0.00000  Uiso   1.00
C31    C     0.57222   0.10203  -0.01498   0.00000  Uiso   1.00
C32    C     0.07221   0.60203  -0.01498   0.00000  Uiso   1.00
C33    C     0.40547   0.09989   0.14680   0.00000  Uiso   1.00
C34    C     0.90547   0.59989   0.14680   0.00000  Uiso   1.00
C35    C     0.59453   0.90011   0.14680   0.00000  Uiso   1.00
C36    C     0.09453   0.40011   0.14680   0.00000  Uiso   1.00
C37    C     0.40547   0.90011   0.14680   0.00000  Uiso   1.00
C38    C     0.90547   0.40011   0.14680   0.00000  Uiso   1.00
C39    C     0.59453   0.09989   0.14680   0.00000  Uiso   1.00
C40    C     0.09453   0.59989   0.14680   0.00000  Uiso   1.00
C41    C     0.37104   0.12219   0.17168   0.00000  Uiso   1.00
C42    C     0.87104   0.62219   0.17168   0.00000  Uiso   1.00
C43    C     0.62896   0.87781   0.17168   0.00000  Uiso   1.00
C44    C     0.12896   0.37781   0.17168   0.00000  Uiso   1.00
C45    C     0.37104   0.87781   0.17168   0.00000  Uiso   1.00
C46    C     0.87104   0.37781   0.17168   0.00000  Uiso   1.00
C47    C     0.62896   0.12219   0.17168   0.00000  Uiso   1.00
C48    C     0.12896   0.62219   0.17168   0.00000  Uiso   1.00
C49    C     0.35802   0.14747   0.03638   0.00000  Uiso   1.00
C50    C     0.85802   0.64747   0.03638   0.00000  Uiso   1.00
C51    C     0.64198   0.85253   0.03638   0.00000  Uiso   1.00
C52    C     0.14198   0.35253   0.03638   0.00000  Uiso   1.00
C53    C     0.35802   0.85253   0.03638   0.00000  Uiso   1.00
C54    C     0.85802   0.35253   0.03638   0.00000  Uiso   1.00
C55    C     0.64198   0.14747   0.03638   0.00000  Uiso   1.00
C56    C     0.14198   0.64747   0.03638   0.00000  Uiso   1.00
C57    C     0.38033   0.14929  -0.12620   0.00000  Uiso   1.00
C58    C     0.88033   0.64929  -0.12620   0.00000  Uiso   1.00
C59    C     0.61967   0.85071  -0.12620   0.00000  Uiso   1.00
C60    C     0.11967   0.35071  -0.12620   0.00000  Uiso   1.00
C61    C     0.38033   0.85071  -0.12620   0.00000  Uiso   1.00
C62    C     0.88033   0.35071  -0.12620   0.00000  Uiso   1.00
C63    C     0.61967   0.14929  -0.12620   0.00000  Uiso   1.00
C64    C     0.11967   0.64929  -0.12620   0.00000  Uiso   1.00
C65    C     0.41477   0.12687  -0.15165   0.00000  Uiso   1.00
C66    C     0.91477   0.62687  -0.15165   0.00000  Uiso   1.00
C67    C     0.58523   0.87313  -0.15165   0.00000  Uiso   1.00
C68    C     0.08523   0.37313  -0.15165   0.00000  Uiso   1.00
C69    C     0.41477   0.87313  -0.15165   0.00000  Uiso   1.00
C70    C     0.91477   0.37313  -0.15165   0.00000  Uiso   1.00
C71    C     0.58523   0.12687  -0.15165   0.00000  Uiso   1.00
C72    C     0.08523   0.62687  -0.15165   0.00000  Uiso   1.00
C73    C     0.32397   0.17008   0.06879   0.00000  Uiso   1.00
C74    C     0.82397   0.67008   0.06879   0.00000  Uiso   1.00
C75    C     0.67603   0.82992   0.06879   0.00000  Uiso   1.00
C76    C     0.17603   0.32992   0.06879   0.00000  Uiso   1.00
C77    C     0.32397   0.82992   0.06879   0.00000  Uiso   1.00
C78    C     0.82397   0.32992   0.06879   0.00000  Uiso   1.00
C79    C     0.67603   0.17008   0.06879   0.00000  Uiso   1.00
C80    C     0.17603   0.67008   0.06879   0.00000  Uiso   1.00
C81    C     0.78146   0.27731  -0.03220   0.00000  Uiso   1.00
C82    C     0.28146   0.77731  -0.03220   0.00000  Uiso   1.00
C83    C     0.21854   0.72269  -0.03220   0.00000  Uiso   1.00
C84    C     0.71854   0.22269  -0.03220   0.00000  Uiso   1.00
C85    C     0.78146   0.72269  -0.03220   0.00000  Uiso   1.00
C86    C     0.28146   0.22269  -0.03220   0.00000  Uiso   1.00
C87    C     0.21854   0.27731  -0.03220   0.00000  Uiso   1.00
C88    C     0.71854   0.77731  -0.03220   0.00000  Uiso   1.00
C89    C     0.76555   0.26338  -0.19517   0.00000  Uiso   1.00
C90    C     0.26555   0.76338  -0.19517   0.00000  Uiso   1.00
C91    C     0.23445   0.73662  -0.19517   0.00000  Uiso   1.00
C92    C     0.73445   0.23662  -0.19517   0.00000  Uiso   1.00
C93    C     0.76555   0.73662  -0.19517   0.00000  Uiso   1.00
C94    C     0.26555   0.23662  -0.19517   0.00000  Uiso   1.00
C95    C     0.23445   0.26338  -0.19517   0.00000  Uiso   1.00
C96    C     0.73445   0.76338  -0.19517   0.00000  Uiso   1.00
C97    C     0.73414   0.23679   0.13240   0.00000  Uiso   1.00
C98    C     0.23414   0.73679   0.13240   0.00000  Uiso   1.00
C99    C     0.26586   0.76321   0.13240   0.00000  Uiso   1.00
C100   C     0.76586   0.26321   0.13240   0.00000  Uiso   1.00
C101   C     0.73414   0.76321   0.13240   0.00000  Uiso   1.00
C102   C     0.23414   0.26321   0.13240   0.00000  Uiso   1.00
C103   C     0.26586   0.23679   0.13240   0.00000  Uiso   1.00
C104   C     0.76586   0.73679   0.13240   0.00000  Uiso   1.00
H1     H     0.39938   0.03289  -0.06018   0.00000  Uiso   1.00
H2     H     0.89938   0.53289  -0.06018   0.00000  Uiso   1.00
H3     H     0.60062   0.96711  -0.06018   0.00000  Uiso   1.00
H4     H     0.10062   0.46711  -0.06018   0.00000  Uiso   1.00
H5     H     0.39938   0.96711  -0.06018   0.00000  Uiso   1.00
H6     H     0.89938   0.46711  -0.06018   0.00000  Uiso   1.00
H7     H     0.60062   0.03289  -0.06018   0.00000  Uiso   1.00
H8     H     0.10062   0.53289  -0.06018   0.00000  Uiso   1.00
H9     H     0.41425   0.08221   0.24844   0.00000  Uiso   1.00
H10    H     0.91425   0.58221   0.24844   0.00000  Uiso   1.00
H11    H     0.58575   0.91779   0.24844   0.00000  Uiso   1.00
H12    H     0.08575   0.41779   0.24844   0.00000  Uiso   1.00
H13    H     0.41425   0.91779   0.24844   0.00000  Uiso   1.00
H14    H     0.91425   0.41779   0.24844   0.00000  Uiso   1.00
H15    H     0.58575   0.08221   0.24844   0.00000  Uiso   1.00
H16    H     0.08575   0.58221   0.24844   0.00000  Uiso   1.00
H17    H     0.35573   0.11988   0.29103   0.00000  Uiso   1.00
H18    H     0.85573   0.61988   0.29103   0.00000  Uiso   1.00
H19    H     0.64427   0.88012   0.29103   0.00000  Uiso   1.00
H20    H     0.14427   0.38012   0.29103   0.00000  Uiso   1.00
H21    H     0.35573   0.88012   0.29103   0.00000  Uiso   1.00
H22    H     0.85573   0.38012   0.29103   0.00000  Uiso   1.00
H23    H     0.64427   0.11988   0.29103   0.00000  Uiso   1.00
H24    H     0.14427   0.61988   0.29103   0.00000  Uiso   1.00
H25    H     0.37185   0.16703  -0.22789   0.00000  Uiso   1.00
H26    H     0.87185   0.66703  -0.22789   0.00000  Uiso   1.00
H27    H     0.62815   0.83297  -0.22789   0.00000  Uiso   1.00
H28    H     0.12815   0.33297  -0.22789   0.00000  Uiso   1.00
H29    H     0.37185   0.83297  -0.22789   0.00000  Uiso   1.00
H30    H     0.87185   0.33297  -0.22789   0.00000  Uiso   1.00
H31    H     0.62815   0.16703  -0.22789   0.00000  Uiso   1.00
H32    H     0.12815   0.66703  -0.22789   0.00000  Uiso   1.00
H33    H     0.43035   0.12887  -0.27038   0.00000  Uiso   1.00
H34    H     0.93035   0.62887  -0.27038   0.00000  Uiso   1.00
H35    H     0.56965   0.87113  -0.27038   0.00000  Uiso   1.00
H36    H     0.06965   0.37113  -0.27038   0.00000  Uiso   1.00
H37    H     0.43035   0.87113  -0.27038   0.00000  Uiso   1.00
H38    H     0.93035   0.37113  -0.27038   0.00000  Uiso   1.00
H39    H     0.56965   0.12887  -0.27038   0.00000  Uiso   1.00
H40    H     0.06965   0.62887  -0.27038   0.00000  Uiso   1.00
H41    H     0.30813   0.16587   0.18516   0.00000  Uiso   1.00
H42    H     0.80813   0.66587   0.18516   0.00000  Uiso   1.00
H43    H     0.69188   0.83413   0.18516   0.00000  Uiso   1.00
H44    H     0.19188   0.33413   0.18516   0.00000  Uiso   1.00
H45    H     0.30813   0.83413   0.18516   0.00000  Uiso   1.00
H46    H     0.80813   0.33413   0.18516   0.00000  Uiso   1.00
H47    H     0.69188   0.16587   0.18516   0.00000  Uiso   1.00
H48    H     0.19188   0.66587   0.18516   0.00000  Uiso   1.00
H49    H     0.77649   0.27282  -0.31586   0.00000  Uiso   1.00
H50    H     0.27649   0.77282  -0.31586   0.00000  Uiso   1.00
H51    H     0.22351   0.72718  -0.31586   0.00000  Uiso   1.00
H52    H     0.72352   0.22718  -0.31586   0.00000  Uiso   1.00
H53    H     0.77649   0.72718  -0.31586   0.00000  Uiso   1.00
H54    H     0.27649   0.22718  -0.31586   0.00000  Uiso   1.00
H55    H     0.22351   0.27282  -0.31586   0.00000  Uiso   1.00
H56    H     0.72352   0.77282  -0.31586   0.00000  Uiso   1.00
O1     O     0.71850   0.22583   0.29257   0.00000  Uiso   1.00
O2     O     0.21850   0.72583   0.29257   0.00000  Uiso   1.00
O3     O     0.28150   0.77417   0.29257   0.00000  Uiso   1.00
O4     O     0.78150   0.27417   0.29257   0.00000  Uiso   1.00
O5     O     0.71850   0.77417   0.29257   0.00000  Uiso   1.00
O6     O     0.21850   0.27417   0.29257   0.00000  Uiso   1.00
O7     O     0.28150   0.22583   0.29257   0.00000  Uiso   1.00
O8     O     0.78150   0.72583   0.29257   0.00000  Uiso   1.00
N1     N     0.31138   0.19692  -0.04753   0.00000  Uiso   1.00
N2     N     0.81138   0.69692  -0.04753   0.00000  Uiso   1.00
N3     N     0.68862   0.80308  -0.04753   0.00000  Uiso   1.00
N4     N     0.18862   0.30308  -0.04753   0.00000  Uiso   1.00
N5     N     0.31138   0.80308  -0.04753   0.00000  Uiso   1.00
N6     N     0.81138   0.30308  -0.04753   0.00000  Uiso   1.00
N7     N     0.68862   0.19692  -0.04753   0.00000  Uiso   1.00
N8     N     0.18862   0.69692  -0.04753   0.00000  Uiso   1.00
C105   C     0.50000   0.09953  -0.03277   0.00000  Uiso   1.00
C106   C     0.00000   0.59953  -0.03277   0.00000  Uiso   1.00
C107   C     0.50000   0.90047  -0.03277   0.00000  Uiso   1.00
C108   C     0.00000   0.40047  -0.03277   0.00000  Uiso   1.00
C109   C     0.50000   0.97987  -0.04688   0.00000  Uiso   1.00
C110   C     0.00000   0.47987  -0.04688   0.00000  Uiso   1.00
C111   C     0.50000   0.02013  -0.04688   0.00000  Uiso   1.00
C112   C     0.00000   0.52013  -0.04688   0.00000  Uiso   1.00
H57    H     0.50000   0.12834  -0.02461   0.00000  Uiso   1.00
H58    H     0.00000   0.62834  -0.02461   0.00000  Uiso   1.00
H59    H     0.50000   0.87166  -0.02461   0.00000  Uiso   1.00
H60    H     0.00000   0.37166  -0.02461   0.00000  Uiso   1.00
H61    H     0.27112   0.76405   0.40604   0.00000  Uiso   1.00
H62    H     0.77112   0.26405   0.40604   0.00000  Uiso   1.00
H63    H     0.72888   0.23595   0.40604   0.00000  Uiso   1.00
H64    H     0.22888   0.73595   0.40604   0.00000  Uiso   1.00
H65    H     0.27112   0.23595   0.40604   0.00000  Uiso   1.00
H66    H     0.77112   0.73595   0.40604   0.00000  Uiso   1.00
H67    H     0.72888   0.76405   0.40604   0.00000  Uiso   1.00
H68    H     0.22888   0.26405   0.40604   0.00000  Uiso   1.00
loop_
_geom_bond_atom_site_label_1
_geom_bond_atom_site_label_2
_geom_bond_distance
_geom_bond_site_symmetry_2
_ccdc_geom_bond_type
C1     C13     1.413   .     S
C1     C109    1.427   .     S
C1     C21     1.423   .     S
C2     C14     1.413   .     S
C2     C22     1.423   .     S
C3     C15     1.413   .     S
C3     C111    1.427   .     S
C3     C23     1.423   .     S
C4     C112    1.427   .     S
C4     C16     1.413   .     S
C4     C24     1.423   .     S
C5     C9      1.413   .     S
C5     C111    1.427   .     S
C5     C17     1.423   .     S
C6     C10     1.413   .     S
C6     C18     1.423   .     S
C7     C11     1.413   .     S
C7     C109    1.427   .     S
C7     C19     1.423   .     S
C8     C110    1.427   .     S
C8     C12     1.413   .     S
C8     C20     1.423   .     S
C9     H1      1.022   .     S
C10    H2      1.022   .     S
C10    C14     1.399   .     S
C11    H3      1.022   .     S
C12    H4      1.022   .     S
C12    C16     1.399   .     S
C13    H5      1.022   .     S
C14    H6      1.022   .     S
C15    H7      1.022   .     S
C16    H8      1.022   .     S
C17    C25     1.412   .     S
C17    C105    1.409   .     S
C18    C26     1.412   .     S
C19    C27     1.412   .     S
C19    C107    1.409   .     S
C20    C108    1.409   .     S
C20    C28     1.412   .     S
C21    C29     1.412   .     S
C21    C107    1.409   .     S
C22    C30     1.412   .     S
C23    C31     1.412   .     S
C23    C105    1.409   .     S
C24    C106    1.409   .     S
C24    C32     1.412   .     S
C25    C65     1.413   .     S
C25    C33     1.412   .     S
C26    C66     1.413   .     S
C26    C34     1.412   .     S
C27    C67     1.413   .     S
C27    C35     1.412   .     S
C28    C68     1.413   .     S
C28    C36     1.412   .     S
C29    C69     1.413   .     S
C29    C37     1.412   .     S
C30    C70     1.413   .     S
C30    C38     1.412   .     S
C31    C71     1.413   .     S
C31    C39     1.412   .     S
C32    C72     1.413   .     S
C32    C40     1.412   .     S
C33    C41     1.405   .     S
C33    H9      1.024   .     S
C34    C42     1.405   .     S
C34    H10     1.024   .     S
C35    C43     1.405   .     S
C35    H11     1.024   .     S
C36    C44     1.405   .     S
C36    H12     1.024   .     S
C37    C45     1.405   .     S
C37    H13     1.024   .     S
C38    C46     1.405   .     S
C38    H14     1.024   .     S
C39    C47     1.405   .     S
C39    H15     1.024   .     S
C40    C48     1.405   .     S
C40    H16     1.024   .     S
C41    C49     1.416   .     S
C41    H17     1.024   .     S
C42    C50     1.416   .     S
C42    H18     1.024   .     S
C43    C51     1.416   .     S
C43    H19     1.024   .     S
C44    C52     1.416   .     S
C44    H20     1.024   .     S
C45    C53     1.416   .     S
C45    H21     1.024   .     S
C46    C54     1.416   .     S
C46    H22     1.024   .     S
C47    C55     1.416   .     S
C47    H23     1.024   .     S
C48    C56     1.416   .     S
C48    H24     1.024   .     S
C49    C73     1.409   .     S
C49    C57     1.417   .     S
C50    C74     1.409   .     S
C50    C58     1.417   .     S
C51    C75     1.409   .     S
C51    C59     1.417   .     S
C52    C76     1.409   .     S
C52    C60     1.417   .     S
C53    C77     1.409   .     S
C53    C61     1.417   .     S
C54    C78     1.409   .     S
C54    C62     1.417   .     S
C55    C79     1.409   .     S
C55    C63     1.417   .     S
C56    C80     1.409   .     S
C56    C64     1.417   .     S
C57    H25     1.023   .     S
C57    C65     1.408   .     S
C58    H26     1.023   .     S
C58    C66     1.408   .     S
C59    C67     1.408   .     S
C59    H27     1.023   .     S
C60    C68     1.408   .     S
C60    H28     1.023   .     S
C61    C69     1.408   .     S
C61    H29     1.023   .     S
C62    C70     1.408   .     S
C62    H30     1.023   .     S
C63    H31     1.023   .     S
C63    C71     1.408   .     S
C64    H32     1.023   .     S
C64    C72     1.408   .     S
C65    H33     1.024   .     S
C66    H34     1.024   .     S
C67    H35     1.024   .     S
C68    H36     1.024   .     S
C69    H37     1.024   .     S
C70    H38     1.024   .     S
C71    H39     1.024   .     S
C72    H40     1.024   .     S
C73    H41     1.022   .     S
C73    N1      1.353   .     S
C74    H42     1.022   .     S
C74    N2      1.353   .     S
C75    H43     1.022   .     S
C75    N3      1.353   .     S
C76    H44     1.022   .     S
C76    N4      1.353   .     S
C77    H45     1.022   .     S
C77    N5      1.353   .     S
C78    H46     1.022   .     S
C78    N6      1.353   .     S
C79    H47     1.022   .     S
C79    N7      1.353   .     S
C80    H48     1.022   .     S
C80    N8      1.353   .     S
C81    C89     1.409   .     S
C81    N6      1.358   .     S
C81    C100    1.418   .     S
C82    C90     1.409   .     S
C82    N5      1.358   .     S
C82    C99     1.418   .     S
C83    C91     1.409   .     S
C83    N8      1.358   .     S
C83    C98     1.418   .     S
C84    C92     1.409   .     S
C84    N7      1.358   .     S
C84    C97     1.418   .     S
C85    C93     1.409   .     S
C85    N2      1.358   .     S
C85    C104    1.418   .     S
C86    C94     1.409   .     S
C86    N1      1.358   .     S
C86    C103    1.418   .     S
C87    C95     1.409   .     S
C87    N4      1.358   .     S
C87    C102    1.418   .     S
C88    C96     1.409   .     S
C88    N3      1.358   .     S
C88    C101    1.418   .     S
C89    C92     1.406   .     S
C89    H49     1.023   .     S
C90    C91     1.406   .     S
C90    H50     1.023   .     S
C91    H51     1.023   .     S
C92    H52     1.023   .     S
C93    C96     1.406   .     S
C93    H53     1.023   .     S
C94    C95     1.406   .     S
C94    H54     1.023   .     S
C95    H55     1.023   .     S
C96    H56     1.023   .     S
C97    C100    1.413   .     S
C97    O1      1.354   .     S
C98    C99     1.413   .     S
C98    O2      1.354   .     S
C99    O3      1.354   .     S
C100   O4      1.354   .     S
C101   C104    1.413   .     S
C101   O5      1.354   .     S
C102   C103    1.413   .     S
C102   O6      1.354   .     S
C103   O7      1.354   .     S
C104   O8      1.354   .     S
O1     H63     0.978   .     S
O2     H64     0.978   .     S
O3     H61     0.978   .     S
O4     H62     0.978   .     S
O5     H67     0.978   .     S
O6     H68     0.978   .     S
O7     H65     0.978   .     S
O8     H66     0.978   .     S
C105   H57     1.027   .     S
C106   H58     1.027   .     S
C107   H59     1.027   .     S
C108   H60     1.027   .     S
C110   C112    1.433   .     S
