data_Py-Azine_COF
_audit_creation_date              2016-12-13
_audit_creation_method            'Materials Studio'
_symmetry_space_group_name_H-M    'P1'
_symmetry_Int_Tables_number       1
_symmetry_cell_setting            triclinic
loop_
_symmetry_equiv_pos_as_xyz
  x,y,z
_cell_length_a                    29.9684
_cell_length_b                    27.9195
_cell_length_c                    3.9170
_cell_angle_alpha                 90.0000
_cell_angle_beta                  90.0000
_cell_angle_gamma                 90.0000
loop_
_atom_site_label
_atom_site_type_symbol
_atom_site_fract_x
_atom_site_fract_y
_atom_site_fract_z
_atom_site_U_iso_or_equiv
_atom_site_adp_type
_atom_site_occupancy
C1     C     0.04102   0.55379   0.00000   0.00000  Uiso   1.00
C2     C     0.07894   0.47526   0.00000   0.00000  Uiso   1.00
C3     C     0.04373   0.39428   0.00000   0.00000  Uiso   1.00
C4     C     0.08206   0.36019   0.00000   0.00000  Uiso   1.00
C5     C     0.07694   0.30851   0.00000   0.00000  Uiso   1.00
C6     C     0.11142   0.27416   0.00000   0.00000  Uiso   1.00
C7     C     0.15630   0.28809   0.00000   0.00000  Uiso   1.00
C8     C     0.16442   0.33750   0.00000   0.00000  Uiso   1.00
C9     C     0.12905   0.37085   0.00000   0.00000  Uiso   1.00
C10    C     0.19069   0.25368   0.00000   0.00000  Uiso   1.00
H11    H     0.10930   0.46244   0.00000   0.00000  Uiso   1.00
H12    H     0.04728   0.29133   0.00000   0.00000  Uiso   1.00
H13    H     0.10332   0.23847   0.00000   0.00000  Uiso   1.00
H14    H     0.19670   0.34972   0.00000   0.00000  Uiso   1.00
H15    H     0.14206   0.40334   0.00000   0.00000  Uiso   1.00
H16    H     0.18263   0.21804   0.00000   0.00000  Uiso   1.00
C17    C     0.54102   0.05379   0.00000   0.00000  Uiso   1.00
C18    C     0.95898   0.44621   0.00000   0.00000  Uiso   1.00
C19    C     0.92106   0.52474   0.00000   0.00000  Uiso   1.00
C20    C     0.95627   0.60572   0.00000   0.00000  Uiso   1.00
C21    C     0.91794   0.63981   0.00000   0.00000  Uiso   1.00
C22    C     0.92306   0.69149   0.00000   0.00000  Uiso   1.00
C23    C     0.88858   0.72584   0.00000   0.00000  Uiso   1.00
C24    C     0.84370   0.71191   0.00000   0.00000  Uiso   1.00
C25    C     0.83558   0.66250   0.00000   0.00000  Uiso   1.00
C26    C     0.87095   0.62915   0.00000   0.00000  Uiso   1.00
C27    C     0.80931   0.74632   0.00000   0.00000  Uiso   1.00
H28    H     0.89070   0.53756   0.00000   0.00000  Uiso   1.00
H29    H     0.95272   0.70867   0.00000   0.00000  Uiso   1.00
H30    H     0.89668   0.76153   0.00000   0.00000  Uiso   1.00
H31    H     0.80330   0.65028   0.00000   0.00000  Uiso   1.00
H32    H     0.85794   0.59666   0.00000   0.00000  Uiso   1.00
H33    H     0.81737   0.78196   0.00000   0.00000  Uiso   1.00
C34    C     0.45898   0.94621   0.00000   0.00000  Uiso   1.00
C35    C     0.95898   0.55379   0.00000   0.00000  Uiso   1.00
C36    C     0.92106   0.47526   0.00000   0.00000  Uiso   1.00
C37    C     0.95627   0.39428   0.00000   0.00000  Uiso   1.00
C38    C     0.91794   0.36019   0.00000   0.00000  Uiso   1.00
C39    C     0.92306   0.30851   0.00000   0.00000  Uiso   1.00
C40    C     0.88858   0.27416   0.00000   0.00000  Uiso   1.00
C41    C     0.84370   0.28809   0.00000   0.00000  Uiso   1.00
C42    C     0.83558   0.33750   0.00000   0.00000  Uiso   1.00
C43    C     0.87095   0.37085   0.00000   0.00000  Uiso   1.00
C44    C     0.80931   0.25368   0.00000   0.00000  Uiso   1.00
H45    H     0.89070   0.46244   0.00000   0.00000  Uiso   1.00
H46    H     0.95272   0.29133   0.00000   0.00000  Uiso   1.00
H47    H     0.89668   0.23847   0.00000   0.00000  Uiso   1.00
H48    H     0.80330   0.34972   0.00000   0.00000  Uiso   1.00
H49    H     0.85794   0.40334   0.00000   0.00000  Uiso   1.00
H50    H     0.81737   0.21804   0.00000   0.00000  Uiso   1.00
C51    C     0.45898   0.05379   0.00000   0.00000  Uiso   1.00
C52    C     0.04102   0.44621   0.00000   0.00000  Uiso   1.00
C53    C     0.07894   0.52474   0.00000   0.00000  Uiso   1.00
C54    C     0.04373   0.60572   0.00000   0.00000  Uiso   1.00
C55    C     0.08206   0.63981   0.00000   0.00000  Uiso   1.00
C56    C     0.07694   0.69149   0.00000   0.00000  Uiso   1.00
C57    C     0.11142   0.72584   0.00000   0.00000  Uiso   1.00
C58    C     0.15630   0.71191   0.00000   0.00000  Uiso   1.00
C59    C     0.16442   0.66250   0.00000   0.00000  Uiso   1.00
C60    C     0.12905   0.62915   0.00000   0.00000  Uiso   1.00
C61    C     0.19069   0.74632   0.00000   0.00000  Uiso   1.00
H62    H     0.10930   0.53756   0.00000   0.00000  Uiso   1.00
H63    H     0.04728   0.70867   0.00000   0.00000  Uiso   1.00
H64    H     0.10332   0.76153   0.00000   0.00000  Uiso   1.00
H65    H     0.19670   0.65028   0.00000   0.00000  Uiso   1.00
H66    H     0.14206   0.59666   0.00000   0.00000  Uiso   1.00
H67    H     0.18263   0.78196   0.00000   0.00000  Uiso   1.00
C68    C     0.54102   0.94621   0.00000   0.00000  Uiso   1.00
C69    C     0.57894   0.97526   0.00000   0.00000  Uiso   1.00
C70    C     0.54373   0.89428   0.00000   0.00000  Uiso   1.00
C71    C     0.58206   0.86019   0.00000   0.00000  Uiso   1.00
C72    C     0.57694   0.80850   0.00000   0.00000  Uiso   1.00
C73    C     0.61142   0.77416   0.00000   0.00000  Uiso   1.00
C74    C     0.65630   0.78809   0.00000   0.00000  Uiso   1.00
C75    C     0.66442   0.83750   0.00000   0.00000  Uiso   1.00
C76    C     0.62905   0.87085   0.00000   0.00000  Uiso   1.00
C77    C     0.69069   0.75368   0.00000   0.00000  Uiso   1.00
H78    H     0.60930   0.96244   0.00000   0.00000  Uiso   1.00
H79    H     0.54728   0.79133   0.00000   0.00000  Uiso   1.00
H80    H     0.60332   0.73847   0.00000   0.00000  Uiso   1.00
H81    H     0.69670   0.84972   0.00000   0.00000  Uiso   1.00
H82    H     0.64206   0.90334   0.00000   0.00000  Uiso   1.00
H83    H     0.68263   0.71804   0.00000   0.00000  Uiso   1.00
C84    C     0.42106   0.02474   0.00000   0.00000  Uiso   1.00
C85    C     0.45627   0.10572   0.00000   0.00000  Uiso   1.00
C86    C     0.41794   0.13981   0.00000   0.00000  Uiso   1.00
C87    C     0.42306   0.19149   0.00000   0.00000  Uiso   1.00
C88    C     0.38858   0.22584   0.00000   0.00000  Uiso   1.00
C89    C     0.34370   0.21191   0.00000   0.00000  Uiso   1.00
C90    C     0.33558   0.16250   0.00000   0.00000  Uiso   1.00
C91    C     0.37095   0.12915   0.00000   0.00000  Uiso   1.00
C92    C     0.30931   0.24632   0.00000   0.00000  Uiso   1.00
H93    H     0.39070   0.03756   0.00000   0.00000  Uiso   1.00
H94    H     0.45272   0.20867   0.00000   0.00000  Uiso   1.00
H95    H     0.39668   0.26153   0.00000   0.00000  Uiso   1.00
H96    H     0.30330   0.15028   0.00000   0.00000  Uiso   1.00
H97    H     0.35794   0.09666   0.00000   0.00000  Uiso   1.00
H98    H     0.31737   0.28196   0.00000   0.00000  Uiso   1.00
C99    C     0.42106   0.97526   0.00000   0.00000  Uiso   1.00
C100   C     0.45627   0.89428   0.00000   0.00000  Uiso   1.00
C101   C     0.41794   0.86019   0.00000   0.00000  Uiso   1.00
C102   C     0.42306   0.80850   0.00000   0.00000  Uiso   1.00
C103   C     0.38858   0.77416   0.00000   0.00000  Uiso   1.00
C104   C     0.34370   0.78809   0.00000   0.00000  Uiso   1.00
C105   C     0.33558   0.83750   0.00000   0.00000  Uiso   1.00
C106   C     0.37095   0.87085   0.00000   0.00000  Uiso   1.00
C107   C     0.30931   0.75368   0.00000   0.00000  Uiso   1.00
H108   H     0.39070   0.96244   0.00000   0.00000  Uiso   1.00
H109   H     0.45272   0.79133   0.00000   0.00000  Uiso   1.00
H110   H     0.39668   0.73847   0.00000   0.00000  Uiso   1.00
H111   H     0.30330   0.84972   0.00000   0.00000  Uiso   1.00
H112   H     0.35794   0.90334   0.00000   0.00000  Uiso   1.00
H113   H     0.31737   0.71804   0.00000   0.00000  Uiso   1.00
C114   C     0.57894   0.02474   0.00000   0.00000  Uiso   1.00
C115   C     0.54373   0.10572   0.00000   0.00000  Uiso   1.00
C116   C     0.58206   0.13981   0.00000   0.00000  Uiso   1.00
C117   C     0.57694   0.19149   0.00000   0.00000  Uiso   1.00
C118   C     0.61142   0.22584   0.00000   0.00000  Uiso   1.00
C119   C     0.65630   0.21191   0.00000   0.00000  Uiso   1.00
C120   C     0.66442   0.16250   0.00000   0.00000  Uiso   1.00
C121   C     0.62905   0.12915   0.00000   0.00000  Uiso   1.00
C122   C     0.69069   0.24632   0.00000   0.00000  Uiso   1.00
H123   H     0.60930   0.03756   0.00000   0.00000  Uiso   1.00
H124   H     0.54728   0.20867   0.00000   0.00000  Uiso   1.00
H125   H     0.60332   0.26153   0.00000   0.00000  Uiso   1.00
H126   H     0.69670   0.15028   0.00000   0.00000  Uiso   1.00
H127   H     0.64206   0.09666   0.00000   0.00000  Uiso   1.00
H128   H     0.68263   0.28196   0.00000   0.00000  Uiso   1.00
N129   N     0.23422   0.26582   0.00000   0.00000  Uiso   1.00
N130   N     0.73422   0.76582   0.00000   0.00000  Uiso   1.00
N131   N     0.76578   0.73418   0.00000   0.00000  Uiso   1.00
N132   N     0.26578   0.23418   0.00000   0.00000  Uiso   1.00
N133   N     0.76578   0.26582   0.00000   0.00000  Uiso   1.00
N134   N     0.26578   0.76582   0.00000   0.00000  Uiso   1.00
N135   N     0.23422   0.73418   0.00000   0.00000  Uiso   1.00
N136   N     0.73422   0.23418   0.00000   0.00000  Uiso   1.00
C137   C     0.00000   0.37447   0.00000   0.00000  Uiso   1.00
C138   C     0.00000   0.52656   0.00000   0.00000  Uiso   1.00
H139   H     0.00000   0.34028   0.00000   0.00000  Uiso   1.00
C140   C     0.50000   0.87447   0.00000   0.00000  Uiso   1.00
H141   H     0.50000   0.84028   0.00000   0.00000  Uiso   1.00
C142   C     0.00000   0.62553   0.00000   0.00000  Uiso   1.00
C143   C     0.00000   0.47344   0.00000   0.00000  Uiso   1.00
H144   H     0.00000   0.65972   0.00000   0.00000  Uiso   1.00
C145   C     0.50000   0.12553   0.00000   0.00000  Uiso   1.00
H146   H     0.50000   0.15972   0.00000   0.00000  Uiso   1.00
C147   C     0.50000   0.02656   0.00000   0.00000  Uiso   1.00
C148   C     0.50000   0.97344   0.00000   0.00000  Uiso   1.00
loop_
_geom_bond_atom_site_label_1
_geom_bond_atom_site_label_2
_geom_bond_distance
_geom_bond_site_symmetry_2
_ccdc_geom_bond_type
C1     C138    1.446   .     S
C1     C53     1.396   .     S
C1     C54     1.452   .     S
C2     H11     0.978   .     S
C2     C52     1.396   .     S
C2     C53     1.382   .     S
C3     C52     1.452   .     S
C3     C137    1.422   .     S
C3     C4      1.492   .     S
C4     C9      1.439   .     S
C4     C5      1.451   .     S
C5     C6      1.410   .     S
C5     H12     1.010   .     S
C6     C7      1.400   .     S
C6     H13     1.026   .     S
C7     C8      1.401   .     S
C7     C10     1.409   .     S
C8     C9      1.411   .     S
C8     H14     1.026   .     S
C9     H15     0.987   .     S
C10    H16     1.024   .     S
C10    N129    1.348   .     S
C17    C114    1.396   .     S
C17    C147    1.446   .     S
C17    C115    1.452   .     S
C18    C36     1.396   .     S
C18    C37     1.452   .     S
C19    H28     0.978   .     S
C19    C35     1.396   .     S
C19    C36     1.382   .     S
C20    C21     1.492   .     S
C20    C35     1.452   .     S
C21    C22     1.451   .     S
C21    C26     1.439   .     S
C22    C23     1.410   .     S
C22    H29     1.010   .     S
C23    C24     1.400   .     S
C23    H30     1.026   .     S
C24    C27     1.409   .     S
C24    C25     1.401   .     S
C25    H31     1.026   .     S
C25    C26     1.411   .     S
C26    H32     0.987   .     S
C27    N131    1.348   .     S
C27    H33     1.024   .     S
C34    C100    1.452   .     S
C34    C99     1.396   .     S
C34    C148    1.446   .     S
C36    H45     0.978   .     S
C37    C38     1.492   .     S
C38    C43     1.439   .     S
C38    C39     1.451   .     S
C39    C40     1.410   .     S
C39    H46     1.010   .     S
C40    C41     1.400   .     S
C40    H47     1.026   .     S
C41    C42     1.401   .     S
C41    C44     1.409   .     S
C42    C43     1.411   .     S
C42    H48     1.026   .     S
C43    H49     0.987   .     S
C44    H50     1.024   .     S
C44    N133    1.348   .     S
C51    C84     1.396   .     S
C51    C147    1.446   .     S
C51    C85     1.452   .     S
C52    C143    1.446   .     S
C53    H62     0.978   .     S
C54    C142    1.422   .     S
C54    C55     1.492   .     S
C55    C56     1.451   .     S
C55    C60     1.439   .     S
C56    C57     1.410   .     S
C56    H63     1.010   .     S
C57    C58     1.400   .     S
C57    H64     1.026   .     S
C58    C61     1.409   .     S
C58    C59     1.401   .     S
C59    H65     1.026   .     S
C59    C60     1.411   .     S
C60    H66     0.987   .     S
C61    N135    1.348   .     S
C61    H67     1.024   .     S
C68    C70     1.452   .     S
C68    C69     1.396   .     S
C68    C148    1.446   .     S
C69    H78     0.978   .     S
C70    C71     1.492   .     S
C70    C140    1.422   .     S
C71    C76     1.439   .     S
C71    C72     1.451   .     S
C72    H79     1.010   .     S
C72    C73     1.410   .     S
C73    C74     1.400   .     S
C73    H80     1.026   .     S
C74    C75     1.401   .     S
C74    C77     1.409   .     S
C75    H81     1.026   .     S
C75    C76     1.411   .     S
C76    H82     0.987   .     S
C77    H83     1.024   .     S
C77    N130    1.348   .     S
C84    H93     0.978   .     S
C85    C145    1.422   .     S
C85    C86     1.492   .     S
C86    C91     1.439   .     S
C86    C87     1.451   .     S
C87    H94     1.010   .     S
C87    C88     1.410   .     S
C88    C89     1.400   .     S
C88    H95     1.026   .     S
C89    C92     1.409   .     S
C89    C90     1.401   .     S
C90    H96     1.026   .     S
C90    C91     1.411   .     S
C91    H97     0.987   .     S
C92    N132    1.348   .     S
C92    H98     1.024   .     S
C99    H108    0.978   .     S
C100   C101    1.492   .     S
C100   C140    1.422   .     S
C101   C106    1.439   .     S
C101   C102    1.451   .     S
C102   H109    1.010   .     S
C102   C103    1.410   .     S
C103   C104    1.400   .     S
C103   H110    1.026   .     S
C104   C105    1.401   .     S
C104   C107    1.409   .     S
C105   H111    1.026   .     S
C105   C106    1.411   .     S
C106   H112    0.987   .     S
C107   H113    1.024   .     S
C107   N134    1.348   .     S
C114   H123    0.978   .     S
C115   C145    1.422   .     S
C115   C116    1.492   .     S
C116   C121    1.439   .     S
C116   C117    1.451   .     S
C117   H124    1.010   .     S
C117   C118    1.410   .     S
C118   C119    1.400   .     S
C118   H125    1.026   .     S
C119   C122    1.409   .     S
C119   C120    1.401   .     S
C120   H126    1.026   .     S
C120   C121    1.411   .     S
C121   H127    0.987   .     S
C122   N136    1.348   .     S
C122   H128    1.024   .     S
N129   N132    1.294   .     S
N130   N131    1.294   .     S
N133   N136    1.294   .     S
N134   N135    1.294   .     S
C137   H139    0.955   .     S
C138   C143    1.483   .     S
C140   H141    0.955   .     S
C142   H144    0.955   .     S
C145   H146    0.955   .     S
