data_Py-An_COF
_audit_creation_date              2016-12-13
_audit_creation_method            'Materials Studio'
_symmetry_space_group_name_H-M    'P1'
_symmetry_Int_Tables_number       1
_symmetry_cell_setting            triclinic
loop_
_symmetry_equiv_pos_as_xyz
  x,y,z
_cell_length_a                    29.0700
_cell_length_b                    4.0722
_cell_length_c                    27.3090
_cell_angle_alpha                 90.0000
_cell_angle_beta                  79.9269
_cell_angle_gamma                 90.0000
loop_
_atom_site_label
_atom_site_type_symbol
_atom_site_fract_x
_atom_site_fract_y
_atom_site_fract_z
_atom_site_U_iso_or_equiv
_atom_site_adp_type
_atom_site_occupancy
C1     C     0.87800   0.36242   0.57151   0.00000  Uiso   1.00
C2     C     0.86894   0.36920   0.52237   0.00000  Uiso   1.00
C3     C     0.90683   0.37954   0.48249   0.00000  Uiso   1.00
C4     C     0.95342   0.37748   0.49094   0.00000  Uiso   1.00
C5     C     0.96218   0.37370   0.54058   0.00000  Uiso   1.00
C6     C     0.92417   0.36597   0.58059   0.00000  Uiso   1.00
C7     C     0.00867   0.37706   0.54919   0.00000  Uiso   1.00
H1     H     0.85108   0.35843   0.60102   0.00000  Uiso   1.00
H2     H     0.90017   0.38596   0.44693   0.00000  Uiso   1.00
H3     H     0.92977   0.36275   0.61656   0.00000  Uiso   1.00
H4     H     0.01494   0.37773   0.58493   0.00000  Uiso   1.00
N1     N     0.82556   0.37078   0.51072   0.00000  Uiso   1.00
C8     C     0.78434   0.27127   0.53761   0.00000  Uiso   1.00
H5     H     0.78400   0.15998   0.57128   0.00000  Uiso   1.00
C9     C     0.59481   0.76321   0.07633   0.00000  Uiso   1.00
C10    C     0.55500   0.75738   0.11428   0.00000  Uiso   1.00
C11    C     0.51039   0.77985   0.10113   0.00000  Uiso   1.00
C12    C     0.50495   0.79144   0.05075   0.00000  Uiso   1.00
C13    C     0.54523   0.79139   0.01275   0.00000  Uiso   1.00
C14    C     0.59003   0.78165   0.02602   0.00000  Uiso   1.00
C15    C     0.53992   0.79619   0.96235   0.00000  Uiso   1.00
H6     H     0.62753   0.75477   0.08502   0.00000  Uiso   1.00
H7     H     0.48163   0.78099   0.12874   0.00000  Uiso   1.00
H8     H     0.61943   0.78499   0.99923   0.00000  Uiso   1.00
H9     H     0.56893   0.79818   0.93502   0.00000  Uiso   1.00
N2     N     0.55656   0.72683   0.16332   0.00000  Uiso   1.00
C16    C     0.59067   0.60342   0.18596   0.00000  Uiso   1.00
H10    H     0.62012   0.50816   0.16470   0.00000  Uiso   1.00
C17    C     0.39048   0.46308   0.58041   0.00000  Uiso   1.00
C18    C     0.39064   0.44012   0.52873   0.00000  Uiso   1.00
C19    C     0.43517   0.45866   0.49671   0.00000  Uiso   1.00
C20    C     0.47765   0.46331   0.51642   0.00000  Uiso   1.00
C21    C     0.47507   0.46725   0.56922   0.00000  Uiso   1.00
C22    C     0.43106   0.48461   0.60221   0.00000  Uiso   1.00
C23    C     0.51772   0.45321   0.58713   0.00000  Uiso   1.00
C24    C     0.56077   0.47242   0.55551   0.00000  Uiso   1.00
H11    H     0.35891   0.46355   0.60361   0.00000  Uiso   1.00
H12    H     0.51875   0.42801   0.62402   0.00000  Uiso   1.00
H13    H     0.58927   0.49698   0.57223   0.00000  Uiso   1.00
C25    C     0.42483   0.52462   0.65512   0.00000  Uiso   1.00
C26    C     0.38909   0.35675   0.68786   0.00000  Uiso   1.00
C27    C     0.38305   0.39290   0.73984   0.00000  Uiso   1.00
C28    C     0.41404   0.58788   0.76187   0.00000  Uiso   1.00
C29    C     0.44930   0.76097   0.72996   0.00000  Uiso   1.00
C30    C     0.45323   0.73863   0.67797   0.00000  Uiso   1.00
H14    H     0.36726   0.19694   0.67432   0.00000  Uiso   1.00
H15    H     0.35654   0.26667   0.76149   0.00000  Uiso   1.00
H16    H     0.47188   0.91083   0.74437   0.00000  Uiso   1.00
H17    H     0.47738   0.88508   0.65673   0.00000  Uiso   1.00
C31    C     0.65339   0.39487   0.48717   0.00000  Uiso   1.00
C32    C     0.65876   0.17819   0.52643   0.00000  Uiso   1.00
C33    C     0.70128   0.14589   0.54394   0.00000  Uiso   1.00
C34    C     0.74185   0.31026   0.52015   0.00000  Uiso   1.00
C35    C     0.73800   0.51172   0.47896   0.00000  Uiso   1.00
C36    C     0.69465   0.55788   0.46367   0.00000  Uiso   1.00
H18    H     0.63141   0.03607   0.54280   0.00000  Uiso   1.00
H19    H     0.70254  -0.00624   0.57353   0.00000  Uiso   1.00
H20    H     0.76663   0.63373   0.46041   0.00000  Uiso   1.00
H21    H     0.69365   0.72043   0.43535   0.00000  Uiso   1.00
C37    C     0.12200   0.36242   0.42849   0.00000  Uiso   1.00
C38    C     0.13106   0.36920   0.47763   0.00000  Uiso   1.00
C39    C     0.09316   0.37954   0.51751   0.00000  Uiso   1.00
C40    C     0.04658   0.37748   0.50906   0.00000  Uiso   1.00
C41    C     0.03781   0.37370   0.45942   0.00000  Uiso   1.00
C42    C     0.07583   0.36597   0.41941   0.00000  Uiso   1.00
C43    C     0.99133   0.37706   0.45081   0.00000  Uiso   1.00
H22    H     0.14892   0.35843   0.39899   0.00000  Uiso   1.00
H23    H     0.09982   0.38596   0.55307   0.00000  Uiso   1.00
H24    H     0.07023   0.36275   0.38344   0.00000  Uiso   1.00
H25    H     0.98506   0.37773   0.41507   0.00000  Uiso   1.00
N3     N     0.17443   0.37078   0.48928   0.00000  Uiso   1.00
C44    C     0.21565   0.27127   0.46239   0.00000  Uiso   1.00
H26    H     0.21600   0.15998   0.42872   0.00000  Uiso   1.00
C45    C     0.40519   0.76321   0.92368   0.00000  Uiso   1.00
C46    C     0.44499   0.75738   0.88572   0.00000  Uiso   1.00
C47    C     0.48961   0.77985   0.89887   0.00000  Uiso   1.00
C48    C     0.49505   0.79144   0.94925   0.00000  Uiso   1.00
C49    C     0.45477   0.79139   0.98726   0.00000  Uiso   1.00
C50    C     0.40997   0.78165   0.97399   0.00000  Uiso   1.00
C51    C     0.46007   0.79619   0.03765   0.00000  Uiso   1.00
H27    H     0.37247   0.75477   0.91498   0.00000  Uiso   1.00
H28    H     0.51836   0.78099   0.87126   0.00000  Uiso   1.00
H29    H     0.38056   0.78499   0.00077   0.00000  Uiso   1.00
H30    H     0.43106   0.79818   0.06498   0.00000  Uiso   1.00
N4     N     0.44344   0.72683   0.83668   0.00000  Uiso   1.00
C52    C     0.40933   0.60342   0.81404   0.00000  Uiso   1.00
H31    H     0.37987   0.50816   0.83530   0.00000  Uiso   1.00
C53    C     0.60952   0.46308   0.41959   0.00000  Uiso   1.00
C54    C     0.60935   0.44012   0.47128   0.00000  Uiso   1.00
C55    C     0.56482   0.45866   0.50329   0.00000  Uiso   1.00
C56    C     0.52235   0.46331   0.48358   0.00000  Uiso   1.00
C57    C     0.52493   0.46725   0.43078   0.00000  Uiso   1.00
C58    C     0.56894   0.48461   0.39779   0.00000  Uiso   1.00
C59    C     0.48228   0.45321   0.41288   0.00000  Uiso   1.00
C60    C     0.43923   0.47242   0.44450   0.00000  Uiso   1.00
H32    H     0.64109   0.46355   0.39639   0.00000  Uiso   1.00
H33    H     0.48125   0.42801   0.37598   0.00000  Uiso   1.00
H34    H     0.41073   0.49698   0.42777   0.00000  Uiso   1.00
C61    C     0.57517   0.52462   0.34489   0.00000  Uiso   1.00
C62    C     0.61091   0.35675   0.31214   0.00000  Uiso   1.00
C63    C     0.61694   0.39290   0.26016   0.00000  Uiso   1.00
C64    C     0.58596   0.58788   0.23813   0.00000  Uiso   1.00
C65    C     0.55070   0.76097   0.27004   0.00000  Uiso   1.00
C66    C     0.54677   0.73863   0.32203   0.00000  Uiso   1.00
H35    H     0.63274   0.19694   0.32568   0.00000  Uiso   1.00
H36    H     0.64346   0.26667   0.23851   0.00000  Uiso   1.00
H37    H     0.52811   0.91083   0.25563   0.00000  Uiso   1.00
H38    H     0.52262   0.88508   0.34327   0.00000  Uiso   1.00
C67    C     0.34661   0.39487   0.51283   0.00000  Uiso   1.00
C68    C     0.34124   0.17819   0.47357   0.00000  Uiso   1.00
C69    C     0.29872   0.14589   0.45607   0.00000  Uiso   1.00
C70    C     0.25815   0.31026   0.47986   0.00000  Uiso   1.00
C71    C     0.26200   0.51172   0.52104   0.00000  Uiso   1.00
C72    C     0.30535   0.55788   0.53633   0.00000  Uiso   1.00
H39    H     0.36858   0.03607   0.45720   0.00000  Uiso   1.00
H40    H     0.29746  -0.00624   0.42647   0.00000  Uiso   1.00
H41    H     0.23337   0.63373   0.53959   0.00000  Uiso   1.00
H42    H     0.30635   0.72043   0.56466   0.00000  Uiso   1.00
loop_
_geom_bond_atom_site_label_1
_geom_bond_atom_site_label_2
_geom_bond_distance
_geom_bond_site_symmetry_2
_ccdc_geom_bond_type
C1     C6      1.407   .     S
C1     C2      1.412   .     S
C1     H1      1.021   .     S
C2     N1      1.353   .     S
C2     C3      1.408   .     S
C3     C4      1.413   .     S
C3     H2      1.023   .     S
C4     C43     1.412   .     S
C4     C5      1.423   .     S
C5     C6      1.412   .     S
C6     H3      1.023   .     S
C7     H4      1.024   .     S
C7     C40     1.412   .     S
N1     C8      1.353   .     S
C8     H5      1.023   .     S
C8     C34     1.409   .     S
C9     C10     1.412   .     S
C9     H6      1.021   .     S
C9     C14     1.407   .     S
C10    C11     1.408   .     S
C10    N2      1.353   .     S
C11    H7      1.023   .     S
C11    C12     1.413   .     S
C12    C13     1.423   .     S
C12    C51     1.412   .     S
C13    C14     1.412   .     S
C15    H9      1.024   .     S
C15    C48     1.412   .     S
N2     C16     1.354   .     S
C16    H10     1.023   .     S
C16    C64     1.409   .     S
C17    C18     1.414   .     S
C17    H11     1.020   .     S
C17    C22     1.414   .     S
C18    C19     1.432   .     S
C18    C67     1.434   .     S
C19    C20     1.431   .     S
C19    C60     1.411   .     S
C20    C56     1.444   .     S
C20    C21     1.431   .     S
C21    C23     1.411   .     S
C21    C22     1.432   .     S
C22    C25     1.434   .     S
C23    C24     1.393   .     S
C23    H12     1.018   .     S
C24    H13     1.018   .     S
C24    C55     1.411   .     S
C25    C30     1.418   .     S
C25    C26     1.422   .     S
C26    H14     1.022   .     S
C26    C27     1.407   .     S
C27    H15     1.024   .     S
C27    C28     1.412   .     S
C28    C29     1.412   .     S
C28    C52     1.409   .     S
C29    H16     1.024   .     S
C29    C30     1.407   .     S
C30    H17     1.021   .     S
C31    C32     1.418   .     S
C31    C36     1.422   .     S
C31    C54     1.434   .     S
C32    C33     1.407   .     S
C32    H18     1.021   .     S
C33    H19     1.024   .     S
C33    C34     1.412   .     S
C34    C35     1.412   .     S
C35    C36     1.408   .     S
C35    H20     1.024   .     S
C36    H21     1.022   .     S
C37    H22     1.021   .     S
C37    C42     1.407   .     S
C37    C38     1.412   .     S
C38    C39     1.408   .     S
C38    N3      1.353   .     S
C39    C40     1.413   .     S
C39    H23     1.023   .     S
C40    C41     1.423   .     S
C41    C42     1.412   .     S
C42    H24     1.023   .     S
C43    H25     1.024   .     S
N3     C44     1.353   .     S
C44    C70     1.409   .     S
C44    H26     1.023   .     S
C45    C50     1.407   .     S
C45    C46     1.412   .     S
C45    H27     1.021   .     S
C46    C47     1.408   .     S
C46    N4      1.353   .     S
C47    H28     1.023   .     S
C47    C48     1.413   .     S
C48    C49     1.423   .     S
C49    C50     1.412   .     S
C51    H30     1.024   .     S
N4     C52     1.354   .     S
C52    H31     1.023   .     S
C53    H32     1.020   .     S
C53    C58     1.414   .     S
C53    C54     1.414   .     S
C54    C55     1.432   .     S
C55    C56     1.431   .     S
C56    C57     1.431   .     S
C57    C59     1.411   .     S
C57    C58     1.432   .     S
C58    C61     1.434   .     S
C59    C60     1.393   .     S
C59    H33     1.018   .     S
C60    H34     1.018   .     S
C61    C66     1.418   .     S
C61    C62     1.422   .     S
C62    H35     1.022   .     S
C62    C63     1.407   .     S
C63    H36     1.024   .     S
C63    C64     1.412   .     S
C64    C65     1.412   .     S
C65    C66     1.407   .     S
C65    H37     1.024   .     S
C66    H38     1.021   .     S
C67    C68     1.418   .     S
C67    C72     1.422   .     S
C68    C69     1.407   .     S
C68    H39     1.021   .     S
C69    H40     1.024   .     S
C69    C70     1.412   .     S
C70    C71     1.412   .     S
C71    H41     1.024   .     S
C71    C72     1.408   .     S
C72    H42     1.022   .     S
