data_Py-DHPh_COF
_audit_creation_date              2016-12-13
_audit_creation_method            'Materials Studio'
_symmetry_space_group_name_H-M    'P1'
_symmetry_Int_Tables_number       1
_symmetry_cell_setting            triclinic
loop_
_symmetry_equiv_pos_as_xyz
  x,y,z
_cell_length_a                    35.5954
_cell_length_b                    33.2473
_cell_length_c                    7.4146
_cell_angle_alpha                 90.0000
_cell_angle_beta                  90.0000
_cell_angle_gamma                 90.0000
loop_
_atom_site_label
_atom_site_type_symbol
_atom_site_fract_x
_atom_site_fract_y
_atom_site_fract_z
_atom_site_U_iso_or_equiv
_atom_site_adp_type
_atom_site_occupancy
C1     C     0.03978   0.46291   0.46727   0.00000  Uiso   1.00
C2     C     0.53978   0.96291   0.46727   0.00000  Uiso   1.00
C3     C     0.96022   0.46291   0.53273   0.00000  Uiso   1.00
C4     C     0.46022   0.96291   0.53273   0.00000  Uiso   1.00
C5     C     0.96022   0.53709   0.53273   0.00000  Uiso   1.00
C6     C     0.46022   0.03709   0.53273   0.00000  Uiso   1.00
C7     C     0.03978   0.53709   0.46727   0.00000  Uiso   1.00
C8     C     0.53978   0.03709   0.46727   0.00000  Uiso   1.00
C9     C     0.98081   0.42672   0.51925   0.00000  Uiso   1.00
C10    C     0.48081   0.92672   0.51925   0.00000  Uiso   1.00
C11    C     0.01919   0.42672   0.48075   0.00000  Uiso   1.00
C12    C     0.51919   0.92672   0.48075   0.00000  Uiso   1.00
C13    C     0.01919   0.57328   0.48075   0.00000  Uiso   1.00
C14    C     0.51919   0.07328   0.48075   0.00000  Uiso   1.00
C15    C     0.98081   0.57328   0.51925   0.00000  Uiso   1.00
C16    C     0.48081   0.07328   0.51925   0.00000  Uiso   1.00
C17    C     0.92085   0.46282   0.56713   0.00000  Uiso   1.00
C18    C     0.42085   0.96282   0.56713   0.00000  Uiso   1.00
C19    C     0.07915   0.46282   0.43287   0.00000  Uiso   1.00
C20    C     0.57915   0.96282   0.43287   0.00000  Uiso   1.00
C21    C     0.07915   0.53718   0.43287   0.00000  Uiso   1.00
C22    C     0.57915   0.03718   0.43287   0.00000  Uiso   1.00
C23    C     0.92085   0.53718   0.56713   0.00000  Uiso   1.00
C24    C     0.42085   0.03718   0.56713   0.00000  Uiso   1.00
C25    C     0.89764   0.42813   0.56367   0.00000  Uiso   1.00
C26    C     0.39764   0.92813   0.56367   0.00000  Uiso   1.00
C27    C     0.10236   0.42813   0.43633   0.00000  Uiso   1.00
C28    C     0.60236   0.92813   0.43633   0.00000  Uiso   1.00
C29    C     0.10236   0.57187   0.43633   0.00000  Uiso   1.00
C30    C     0.60236   0.07187   0.43633   0.00000  Uiso   1.00
C31    C     0.89764   0.57187   0.56367   0.00000  Uiso   1.00
C32    C     0.39764   0.07187   0.56367   0.00000  Uiso   1.00
C33    C     0.87097   0.42064   0.70149   0.00000  Uiso   1.00
C34    C     0.37097   0.92064   0.70149   0.00000  Uiso   1.00
C35    C     0.12903   0.42064   0.29851   0.00000  Uiso   1.00
C36    C     0.62903   0.92064   0.29851   0.00000  Uiso   1.00
C37    C     0.12903   0.57936   0.29851   0.00000  Uiso   1.00
C38    C     0.62903   0.07936   0.29851   0.00000  Uiso   1.00
C39    C     0.87097   0.57936   0.70149   0.00000  Uiso   1.00
C40    C     0.37097   0.07936   0.70149   0.00000  Uiso   1.00
C41    C     0.84627   0.38772   0.69086   0.00000  Uiso   1.00
C42    C     0.34627   0.88772   0.69086   0.00000  Uiso   1.00
C43    C     0.15373   0.38772   0.30914   0.00000  Uiso   1.00
C44    C     0.65373   0.88772   0.30914   0.00000  Uiso   1.00
C45    C     0.15373   0.61228   0.30914   0.00000  Uiso   1.00
C46    C     0.65373   0.11228   0.30914   0.00000  Uiso   1.00
C47    C     0.84627   0.61228   0.69086   0.00000  Uiso   1.00
C48    C     0.34627   0.11228   0.69086   0.00000  Uiso   1.00
C49    C     0.84750   0.36160   0.54087   0.00000  Uiso   1.00
C50    C     0.34750   0.86160   0.54087   0.00000  Uiso   1.00
C51    C     0.15250   0.36160   0.45913   0.00000  Uiso   1.00
C52    C     0.65250   0.86160   0.45913   0.00000  Uiso   1.00
C53    C     0.15250   0.63840   0.45913   0.00000  Uiso   1.00
C54    C     0.65250   0.13840   0.45913   0.00000  Uiso   1.00
C55    C     0.84750   0.63840   0.54087   0.00000  Uiso   1.00
C56    C     0.34750   0.13840   0.54087   0.00000  Uiso   1.00
C57    C     0.87427   0.36838   0.40477   0.00000  Uiso   1.00
C58    C     0.37427   0.86838   0.40477   0.00000  Uiso   1.00
C59    C     0.12573   0.36838   0.59523   0.00000  Uiso   1.00
C60    C     0.62573   0.86838   0.59523   0.00000  Uiso   1.00
C61    C     0.12573   0.63162   0.59523   0.00000  Uiso   1.00
C62    C     0.62573   0.13162   0.59523   0.00000  Uiso   1.00
C63    C     0.87427   0.63162   0.40477   0.00000  Uiso   1.00
C64    C     0.37427   0.13162   0.40477   0.00000  Uiso   1.00
C65    C     0.89893   0.40129   0.41543   0.00000  Uiso   1.00
C66    C     0.39893   0.90129   0.41543   0.00000  Uiso   1.00
C67    C     0.10107   0.40129   0.58457   0.00000  Uiso   1.00
C68    C     0.60107   0.90129   0.58457   0.00000  Uiso   1.00
C69    C     0.10107   0.59871   0.58457   0.00000  Uiso   1.00
C70    C     0.60107   0.09871   0.58457   0.00000  Uiso   1.00
C71    C     0.89893   0.59871   0.41543   0.00000  Uiso   1.00
C72    C     0.39893   0.09871   0.41543   0.00000  Uiso   1.00
H1     H     0.96828   0.39939   0.53807   0.00000  Uiso   1.00
H2     H     0.46828   0.89939   0.53807   0.00000  Uiso   1.00
H3     H     0.03172   0.39939   0.46193   0.00000  Uiso   1.00
H4     H     0.53172   0.89939   0.46193   0.00000  Uiso   1.00
H5     H     0.03172   0.60061   0.46193   0.00000  Uiso   1.00
H6     H     0.53172   0.10061   0.46193   0.00000  Uiso   1.00
H7     H     0.96828   0.60061   0.53807   0.00000  Uiso   1.00
H8     H     0.46828   0.10061   0.53807   0.00000  Uiso   1.00
H9     H     0.86944   0.43911   0.81180   0.00000  Uiso   1.00
H10    H     0.36944   0.93911   0.81180   0.00000  Uiso   1.00
H11    H     0.13056   0.43911   0.18820   0.00000  Uiso   1.00
H12    H     0.63056   0.93911   0.18820   0.00000  Uiso   1.00
H13    H     0.13056   0.56089   0.18820   0.00000  Uiso   1.00
H14    H     0.63056   0.06089   0.18820   0.00000  Uiso   1.00
H15    H     0.86944   0.56089   0.81180   0.00000  Uiso   1.00
H16    H     0.36944   0.06089   0.81180   0.00000  Uiso   1.00
H17    H     0.82739   0.38329   0.79248   0.00000  Uiso   1.00
H18    H     0.32739   0.88329   0.79248   0.00000  Uiso   1.00
H19    H     0.17261   0.38329   0.20752   0.00000  Uiso   1.00
H20    H     0.67261   0.88329   0.20752   0.00000  Uiso   1.00
H21    H     0.17261   0.61671   0.20752   0.00000  Uiso   1.00
H22    H     0.67261   0.11671   0.20752   0.00000  Uiso   1.00
H23    H     0.82739   0.61671   0.79248   0.00000  Uiso   1.00
H24    H     0.32739   0.11671   0.79248   0.00000  Uiso   1.00
H25    H     0.87551   0.34951   0.29572   0.00000  Uiso   1.00
H26    H     0.37551   0.84951   0.29572   0.00000  Uiso   1.00
H27    H     0.12449   0.34951   0.70428   0.00000  Uiso   1.00
H28    H     0.62449   0.84951   0.70428   0.00000  Uiso   1.00
H29    H     0.12449   0.65049   0.70428   0.00000  Uiso   1.00
H30    H     0.62449   0.15049   0.70428   0.00000  Uiso   1.00
H31    H     0.87551   0.65049   0.29572   0.00000  Uiso   1.00
H32    H     0.37551   0.15049   0.29572   0.00000  Uiso   1.00
H33    H     0.91720   0.40605   0.31090   0.00000  Uiso   1.00
H34    H     0.41720   0.90605   0.31090   0.00000  Uiso   1.00
H35    H     0.08280   0.40605   0.68910   0.00000  Uiso   1.00
H36    H     0.58280   0.90605   0.68910   0.00000  Uiso   1.00
H37    H     0.08280   0.59395   0.68910   0.00000  Uiso   1.00
H38    H     0.58280   0.09395   0.68910   0.00000  Uiso   1.00
H39    H     0.91720   0.59395   0.31090   0.00000  Uiso   1.00
H40    H     0.41720   0.09395   0.31090   0.00000  Uiso   1.00
C73    C     0.90255   0.50000   0.59294   0.00000  Uiso   1.00
C74    C     0.40255   0.00000   0.59294   0.00000  Uiso   1.00
C75    C     0.09745   0.50000   0.40706   0.00000  Uiso   1.00
C76    C     0.59745   0.00000   0.40706   0.00000  Uiso   1.00
C77    C     0.01986   0.50000   0.48386   0.00000  Uiso   1.00
C78    C     0.51986   0.00000   0.48386   0.00000  Uiso   1.00
C79    C     0.98014   0.50000   0.51614   0.00000  Uiso   1.00
C80    C     0.48014   0.00000   0.51614   0.00000  Uiso   1.00
H41    H     0.87419   0.50000   0.61778   0.00000  Uiso   1.00
H42    H     0.37419   0.00000   0.61778   0.00000  Uiso   1.00
H43    H     0.12581   0.50000   0.38222   0.00000  Uiso   1.00
H44    H     0.62581   0.00000   0.38222   0.00000  Uiso   1.00
N1     N     0.32413   0.16974   0.51373   0.00000  Uiso   1.00
N2     N     0.82413   0.66974   0.51373   0.00000  Uiso   1.00
N3     N     0.67587   0.16974   0.48627   0.00000  Uiso   1.00
N4     N     0.17587   0.66974   0.48627   0.00000  Uiso   1.00
N5     N     0.67587   0.83026   0.48627   0.00000  Uiso   1.00
N6     N     0.17587   0.33026   0.48627   0.00000  Uiso   1.00
N7     N     0.32413   0.83026   0.51373   0.00000  Uiso   1.00
N8     N     0.82413   0.33026   0.51373   0.00000  Uiso   1.00
C81    C     0.29567   0.18470   0.61293   0.00000  Uiso   1.00
C82    C     0.79567   0.68470   0.61293   0.00000  Uiso   1.00
C83    C     0.70433   0.18470   0.38707   0.00000  Uiso   1.00
C84    C     0.20433   0.68470   0.38707   0.00000  Uiso   1.00
C85    C     0.70433   0.81530   0.38707   0.00000  Uiso   1.00
C86    C     0.20433   0.31530   0.38707   0.00000  Uiso   1.00
C87    C     0.29567   0.81530   0.61293   0.00000  Uiso   1.00
C88    C     0.79567   0.31530   0.61293   0.00000  Uiso   1.00
C89    C     0.27356   0.21723   0.55304   0.00000  Uiso   1.00
C90    C     0.77356   0.71723   0.55304   0.00000  Uiso   1.00
C91    C     0.72644   0.21723   0.44696   0.00000  Uiso   1.00
C92    C     0.22644   0.71723   0.44696   0.00000  Uiso   1.00
C93    C     0.72644   0.78277   0.44696   0.00000  Uiso   1.00
C94    C     0.22644   0.28277   0.44696   0.00000  Uiso   1.00
C95    C     0.27356   0.78277   0.55304   0.00000  Uiso   1.00
C96    C     0.77356   0.28277   0.55304   0.00000  Uiso   1.00
C97    C     0.24449   0.23128   0.66710   0.00000  Uiso   1.00
C98    C     0.74449   0.73128   0.66710   0.00000  Uiso   1.00
C99    C     0.75551   0.23128   0.33290   0.00000  Uiso   1.00
C100   C     0.25551   0.73128   0.33290   0.00000  Uiso   1.00
C101   C     0.75551   0.76872   0.33290   0.00000  Uiso   1.00
C102   C     0.25551   0.26872   0.33290   0.00000  Uiso   1.00
C103   C     0.24449   0.76872   0.66710   0.00000  Uiso   1.00
C104   C     0.74449   0.26872   0.66710   0.00000  Uiso   1.00
C105   C     0.22127   0.26345   0.61615   0.00000  Uiso   1.00
C106   C     0.72127   0.76345   0.61615   0.00000  Uiso   1.00
C107   C     0.77873   0.26345   0.38385   0.00000  Uiso   1.00
C108   C     0.27873   0.76345   0.38385   0.00000  Uiso   1.00
C109   C     0.77873   0.73655   0.38385   0.00000  Uiso   1.00
C110   C     0.27873   0.23655   0.38385   0.00000  Uiso   1.00
C111   C     0.22127   0.73655   0.61615   0.00000  Uiso   1.00
C112   C     0.72127   0.23655   0.61615   0.00000  Uiso   1.00
H45    H     0.23987   0.21813   0.78994   0.00000  Uiso   1.00
H46    H     0.73987   0.71813   0.78994   0.00000  Uiso   1.00
H47    H     0.76013   0.21813   0.21006   0.00000  Uiso   1.00
H48    H     0.26013   0.71813   0.21006   0.00000  Uiso   1.00
H49    H     0.76013   0.78187   0.21006   0.00000  Uiso   1.00
H50    H     0.26013   0.28187   0.21006   0.00000  Uiso   1.00
H51    H     0.23987   0.78187   0.78994   0.00000  Uiso   1.00
H52    H     0.73987   0.28187   0.78994   0.00000  Uiso   1.00
O1     O     0.19469   0.27418   0.73757   0.00000  Uiso   1.00
O2     O     0.69469   0.77418   0.73757   0.00000  Uiso   1.00
O3     O     0.80531   0.27418   0.26243   0.00000  Uiso   1.00
O4     O     0.30531   0.77418   0.26243   0.00000  Uiso   1.00
O5     O     0.80531   0.72582   0.26243   0.00000  Uiso   1.00
O6     O     0.30531   0.22582   0.26243   0.00000  Uiso   1.00
O7     O     0.19469   0.72582   0.73757   0.00000  Uiso   1.00
O8     O     0.69469   0.22582   0.73757   0.00000  Uiso   1.00
H53    H     0.28984   0.17189   0.73520   0.00000  Uiso   1.00
H54    H     0.19180   0.25953   0.85126   0.00000  Uiso   1.00
H55    H     0.78984   0.67189   0.73520   0.00000  Uiso   1.00
H56    H     0.69180   0.75953   0.85126   0.00000  Uiso   1.00
H57    H     0.71016   0.17189   0.26480   0.00000  Uiso   1.00
H58    H     0.80820   0.25953   0.14874   0.00000  Uiso   1.00
H59    H     0.21016   0.67189   0.26480   0.00000  Uiso   1.00
H60    H     0.30820   0.75953   0.14874   0.00000  Uiso   1.00
H61    H     0.71016   0.82811   0.26480   0.00000  Uiso   1.00
H62    H     0.80820   0.74047   0.14874   0.00000  Uiso   1.00
H63    H     0.21016   0.32811   0.26480   0.00000  Uiso   1.00
H64    H     0.30820   0.24047   0.14874   0.00000  Uiso   1.00
H65    H     0.28984   0.82811   0.73520   0.00000  Uiso   1.00
H66    H     0.19180   0.74047   0.85126   0.00000  Uiso   1.00
H67    H     0.78984   0.32811   0.73520   0.00000  Uiso   1.00
H68    H     0.69180   0.24047   0.85126   0.00000  Uiso   1.00
loop_
_geom_bond_atom_site_label_1
_geom_bond_atom_site_label_2
_geom_bond_distance
_geom_bond_site_symmetry_2
_ccdc_geom_bond_type
C1     C19     1.425   .     S
C1     C77     1.428   .     S
C1     C11     1.412   .     S
C2     C20     1.425   .     S
C2     C12     1.412   .     S
C3     C9      1.412   .     S
C3     C17     1.425   .     S
C3     C79     1.428   .     S
C4     C18     1.425   .     S
C4     C10     1.412   .     S
C5     C15     1.412   .     S
C5     C23     1.425   .     S
C5     C79     1.428   .     S
C6     C80     1.428   .     S
C6     C24     1.425   .     S
C6     C16     1.412   .     S
C7     C21     1.425   .     S
C7     C13     1.412   .     S
C7     C77     1.428   .     S
C8     C22     1.425   .     S
C8     C14     1.412   .     S
C8     C78     1.428   .     S
C9     H1      1.022   .     S
C10    C12     1.396   .     S
C10    H2      1.022   .     S
C11    H3      1.022   .     S
C12    H4      1.022   .     S
C13    H5      1.022   .     S
C14    C16     1.396   .     S
C14    H6      1.022   .     S
C15    H7      1.022   .     S
C16    H8      1.022   .     S
C17    C25     1.419   .     S
C17    C73     1.410   .     S
C18    C26     1.419   .     S
C19    C27     1.419   .     S
C19    C75     1.410   .     S
C20    C28     1.419   .     S
C21    C29     1.419   .     S
C21    C75     1.410   .     S
C22    C76     1.410   .     S
C22    C30     1.419   .     S
C23    C31     1.419   .     S
C23    C73     1.410   .     S
C24    C74     1.410   .     S
C24    C32     1.419   .     S
C25    C33     1.417   .     S
C25    C65     1.417   .     S
C26    C34     1.417   .     S
C26    C66     1.417   .     S
C27    C35     1.417   .     S
C27    C67     1.417   .     S
C28    C36     1.417   .     S
C28    C68     1.417   .     S
C29    C37     1.417   .     S
C29    C69     1.417   .     S
C30    C38     1.417   .     S
C30    C70     1.417   .     S
C31    C39     1.417   .     S
C31    C71     1.417   .     S
C32    C40     1.417   .     S
C32    C72     1.417   .     S
C33    C41     1.406   .     S
C33    H9      1.024   .     S
C34    C42     1.406   .     S
C34    H10     1.024   .     S
C35    C43     1.406   .     S
C35    H11     1.024   .     S
C36    C44     1.406   .     S
C36    H12     1.024   .     S
C37    C45     1.406   .     S
C37    H13     1.024   .     S
C38    C46     1.406   .     S
C38    H14     1.024   .     S
C39    C47     1.406   .     S
C39    H15     1.024   .     S
C40    C48     1.406   .     S
C40    H16     1.024   .     S
C41    C49     1.412   .     S
C41    H17     1.020   .     S
C42    C50     1.412   .     S
C42    H18     1.020   .     S
C43    C51     1.412   .     S
C43    H19     1.020   .     S
C44    C52     1.412   .     S
C44    H20     1.020   .     S
C45    C53     1.412   .     S
C45    H21     1.020   .     S
C46    C54     1.412   .     S
C46    H22     1.020   .     S
C47    C55     1.412   .     S
C47    H23     1.020   .     S
C48    C56     1.412   .     S
C48    H24     1.020   .     S
C49    N8      1.348   .     S
C49    C57     1.406   .     S
C50    N7      1.348   .     S
C50    C58     1.406   .     S
C51    N6      1.348   .     S
C51    C59     1.406   .     S
C52    C60     1.406   .     S
C52    N5      1.348   .     S
C53    N4      1.348   .     S
C53    C61     1.406   .     S
C54    N3      1.348   .     S
C54    C62     1.406   .     S
C55    N2      1.348   .     S
C55    C63     1.406   .     S
C56    N1      1.348   .     S
C56    C64     1.406   .     S
C57    H25     1.024   .     S
C57    C65     1.405   .     S
C58    C66     1.405   .     S
C58    H26     1.024   .     S
C59    H27     1.024   .     S
C59    C67     1.405   .     S
C60    C68     1.405   .     S
C60    H28     1.024   .     S
C61    C69     1.405   .     S
C61    H29     1.024   .     S
C62    H30     1.024   .     S
C62    C70     1.405   .     S
C63    C71     1.405   .     S
C63    H31     1.024   .     S
C64    H32     1.024   .     S
C64    C72     1.405   .     S
C65    H33     1.024   .     S
C66    H34     1.024   .     S
C67    H35     1.024   .     S
C68    H36     1.024   .     S
C69    H37     1.024   .     S
C70    H38     1.024   .     S
C71    H39     1.024   .     S
C72    H40     1.024   .     S
C73    H41     1.026   .     S
C74    H42     1.026   .     S
C75    H43     1.026   .     S
C76    H44     1.026   .     S
C78    C80     1.434   .     S
N1     C81     1.347   .     S
N2     C82     1.347   .     S
N3     C83     1.347   .     S
N4     C84     1.347   .     S
N5     C85     1.347   .     S
N6     C86     1.347   .     S
N7     C87     1.347   .     S
N8     C88     1.347   .     S
C81    C89     1.409   .     S
C81    H53     1.023   .     S
C82    C90     1.409   .     S
C82    H55     1.023   .     S
C83    H57     1.023   .     S
C83    C91     1.409   .     S
C84    H59     1.023   .     S
C84    C92     1.409   .     S
C85    H61     1.023   .     S
C85    C93     1.409   .     S
C86    C94     1.409   .     S
C86    H63     1.023   .     S
C87    C95     1.409   .     S
C87    H65     1.023   .     S
C88    C96     1.409   .     S
C88    H67     1.023   .     S
C89    C97     1.416   .     S
C89    C110    1.421   .     S
C90    C98     1.416   .     S
C90    C109    1.421   .     S
C91    C99     1.416   .     S
C91    C112    1.421   .     S
C92    C100    1.416   .     S
C92    C111    1.421   .     S
C93    C101    1.416   .     S
C93    C106    1.421   .     S
C94    C102    1.416   .     S
C94    C105    1.421   .     S
C95    C103    1.416   .     S
C95    C108    1.421   .     S
C96    C104    1.416   .     S
C96    C107    1.421   .     S
C97    C105    1.404   .     S
C97    H45     1.024   .     S
C98    C106    1.404   .     S
C98    H46     1.024   .     S
C99    C107    1.404   .     S
C99    H47     1.024   .     S
C100   C108    1.404   .     S
C100   H48     1.024   .     S
C101   C109    1.404   .     S
C101   H49     1.024   .     S
C102   C110    1.404   .     S
C102   H50     1.024   .     S
C103   C111    1.404   .     S
C103   H51     1.024   .     S
C104   C112    1.404   .     S
C104   H52     1.024   .     S
C105   O1      1.354   .     S
C106   O2      1.354   .     S
C107   O3      1.354   .     S
C108   O4      1.354   .     S
C109   O5      1.354   .     S
C110   O6      1.354   .     S
C111   O7      1.354   .     S
C112   O8      1.354   .     S
O1     H54     0.979   .     S
O2     H56     0.979   .     S
O3     H58     0.979   .     S
O4     H60     0.979   .     S
O5     H62     0.979   .     S
O6     H64     0.979   .     S
O7     H66     0.979   .     S
O8     H68     0.979   .     S
