data_Star-COF-1
_audit_creation_date              2016-12-13
_audit_creation_method            'Materials Studio'
_symmetry_space_group_name_H-M    'P1'
_symmetry_Int_Tables_number       1
_symmetry_cell_setting            triclinic
loop_
_symmetry_equiv_pos_as_xyz
  x,y,z
_cell_length_a                    38.5200
_cell_length_b                    38.5200
_cell_length_c                    3.3800
_cell_angle_alpha                 90.0000
_cell_angle_beta                  90.0000
_cell_angle_gamma                 120.0000
loop_
_atom_site_label
_atom_site_type_symbol
_atom_site_fract_x
_atom_site_fract_y
_atom_site_fract_z
_atom_site_U_iso_or_equiv
_atom_site_adp_type
_atom_site_occupancy
C1     C     0.02079   0.54196   0.50000   0.00000  Uiso   1.00
C2     C     0.14867   0.59298   0.50000   0.00000  Uiso   1.00
C3     C     0.18398   0.62937   0.50000   0.00000  Uiso   1.00
C4     C     0.18350   0.66549   0.50000   0.00000  Uiso   1.00
C5     C     0.21925   0.70217   0.50000   0.00000  Uiso   1.00
C6     C     0.25663   0.70382   0.50000   0.00000  Uiso   1.00
C7     C     0.25592   0.66671   0.50000   0.00000  Uiso   1.00
C8     C     0.22052   0.62912   0.50000   0.00000  Uiso   1.00
O1     O     0.11050   0.58739   0.50000   0.00000  Uiso   1.00
H1     H     0.03656   0.57444   0.50000   0.00000  Uiso   1.00
H2     H     0.15535   0.66543   0.50000   0.00000  Uiso   1.00
H3     H     0.21666   0.72873   0.50000   0.00000  Uiso   1.00
H4     H     0.28302   0.66683   0.50000   0.00000  Uiso   1.00
C9     C     0.45804   0.47883   0.50000   0.00000  Uiso   1.00
C10    C     0.40702   0.55569   0.50000   0.00000  Uiso   1.00
C11    C     0.37063   0.55461   0.50000   0.00000  Uiso   1.00
C12    C     0.33451   0.51801   0.50000   0.00000  Uiso   1.00
C13    C     0.29783   0.51708   0.50000   0.00000  Uiso   1.00
C14    C     0.29618   0.55281   0.50000   0.00000  Uiso   1.00
C15    C     0.33329   0.58921   0.50000   0.00000  Uiso   1.00
C16    C     0.37088   0.59140   0.50000   0.00000  Uiso   1.00
O2     O     0.41261   0.52311   0.50000   0.00000  Uiso   1.00
H5     H     0.42556   0.46213   0.50000   0.00000  Uiso   1.00
H6     H     0.33457   0.48992   0.50000   0.00000  Uiso   1.00
H7     H     0.27127   0.48792   0.50000   0.00000  Uiso   1.00
H8     H     0.33317   0.61619   0.50000   0.00000  Uiso   1.00
C17    C     0.52117   0.97921   0.50000   0.00000  Uiso   1.00
C18    C     0.44431   0.85133   0.50000   0.00000  Uiso   1.00
C19    C     0.44539   0.81602   0.50000   0.00000  Uiso   1.00
C20    C     0.48199   0.81650   0.50000   0.00000  Uiso   1.00
C21    C     0.48292   0.78075   0.50000   0.00000  Uiso   1.00
C22    C     0.44719   0.74337   0.50000   0.00000  Uiso   1.00
C23    C     0.41079   0.74408   0.50000   0.00000  Uiso   1.00
C24    C     0.40860   0.77948   0.50000   0.00000  Uiso   1.00
O3     O     0.47689   0.88950   0.50000   0.00000  Uiso   1.00
H9     H     0.53787   0.96344   0.50000   0.00000  Uiso   1.00
H10    H     0.51008   0.84465   0.50000   0.00000  Uiso   1.00
H11    H     0.51208   0.78334   0.50000   0.00000  Uiso   1.00
H12    H     0.38381   0.71698   0.50000   0.00000  Uiso   1.00
C25    C     0.97921   0.45804   0.50000   0.00000  Uiso   1.00
C26    C     0.85133   0.40702   0.50000   0.00000  Uiso   1.00
C27    C     0.81602   0.37063   0.50000   0.00000  Uiso   1.00
C28    C     0.81650   0.33451   0.50000   0.00000  Uiso   1.00
C29    C     0.78075   0.29783   0.50000   0.00000  Uiso   1.00
C30    C     0.74337   0.29618   0.50000   0.00000  Uiso   1.00
C31    C     0.74408   0.33329   0.50000   0.00000  Uiso   1.00
C32    C     0.77948   0.37088   0.50000   0.00000  Uiso   1.00
O4     O     0.88950   0.41261   0.50000   0.00000  Uiso   1.00
H13    H     0.96344   0.42556   0.50000   0.00000  Uiso   1.00
H14    H     0.84465   0.33457   0.50000   0.00000  Uiso   1.00
H15    H     0.78334   0.27127   0.50000   0.00000  Uiso   1.00
H16    H     0.71698   0.33317   0.50000   0.00000  Uiso   1.00
C33    C     0.54196   0.52117   0.50000   0.00000  Uiso   1.00
C34    C     0.59298   0.44431   0.50000   0.00000  Uiso   1.00
C35    C     0.62937   0.44539   0.50000   0.00000  Uiso   1.00
C36    C     0.66549   0.48199   0.50000   0.00000  Uiso   1.00
C37    C     0.70217   0.48292   0.50000   0.00000  Uiso   1.00
C38    C     0.70382   0.44719   0.50000   0.00000  Uiso   1.00
C39    C     0.66671   0.41079   0.50000   0.00000  Uiso   1.00
C40    C     0.62912   0.40860   0.50000   0.00000  Uiso   1.00
O5     O     0.58739   0.47689   0.50000   0.00000  Uiso   1.00
H17    H     0.57444   0.53787   0.50000   0.00000  Uiso   1.00
H18    H     0.66543   0.51008   0.50000   0.00000  Uiso   1.00
H19    H     0.72873   0.51208   0.50000   0.00000  Uiso   1.00
H20    H     0.66683   0.38381   0.50000   0.00000  Uiso   1.00
C41    C     0.47883   0.02079   0.50000   0.00000  Uiso   1.00
C42    C     0.55569   0.14867   0.50000   0.00000  Uiso   1.00
C43    C     0.55461   0.18398   0.50000   0.00000  Uiso   1.00
C44    C     0.51801   0.18350   0.50000   0.00000  Uiso   1.00
C45    C     0.51708   0.21925   0.50000   0.00000  Uiso   1.00
C46    C     0.55281   0.25663   0.50000   0.00000  Uiso   1.00
C47    C     0.58921   0.25592   0.50000   0.00000  Uiso   1.00
C48    C     0.59140   0.22052   0.50000   0.00000  Uiso   1.00
O6     O     0.52311   0.11050   0.50000   0.00000  Uiso   1.00
H21    H     0.46213   0.03656   0.50000   0.00000  Uiso   1.00
H22    H     0.48992   0.15535   0.50000   0.00000  Uiso   1.00
H23    H     0.48792   0.21666   0.50000   0.00000  Uiso   1.00
H24    H     0.61619   0.28302   0.50000   0.00000  Uiso   1.00
C49    C     0.54196   0.02079   0.50000   0.00000  Uiso   1.00
C50    C     0.59298   0.14867   0.50000   0.00000  Uiso   1.00
C51    C     0.62937   0.18398   0.50000   0.00000  Uiso   1.00
C52    C     0.66549   0.18350   0.50000   0.00000  Uiso   1.00
C53    C     0.70217   0.21925   0.50000   0.00000  Uiso   1.00
C54    C     0.70382   0.25663   0.50000   0.00000  Uiso   1.00
C55    C     0.66671   0.25592   0.50000   0.00000  Uiso   1.00
C56    C     0.62912   0.22052   0.50000   0.00000  Uiso   1.00
O7     O     0.58739   0.11050   0.50000   0.00000  Uiso   1.00
H25    H     0.57444   0.03656   0.50000   0.00000  Uiso   1.00
H26    H     0.66543   0.15535   0.50000   0.00000  Uiso   1.00
H27    H     0.72873   0.21666   0.50000   0.00000  Uiso   1.00
H28    H     0.66683   0.28302   0.50000   0.00000  Uiso   1.00
C57    C     0.47883   0.45804   0.50000   0.00000  Uiso   1.00
C58    C     0.55569   0.40702   0.50000   0.00000  Uiso   1.00
C59    C     0.55461   0.37063   0.50000   0.00000  Uiso   1.00
C60    C     0.51801   0.33451   0.50000   0.00000  Uiso   1.00
C61    C     0.51708   0.29783   0.50000   0.00000  Uiso   1.00
C62    C     0.55281   0.29618   0.50000   0.00000  Uiso   1.00
C63    C     0.58921   0.33329   0.50000   0.00000  Uiso   1.00
C64    C     0.59140   0.37088   0.50000   0.00000  Uiso   1.00
O8     O     0.52311   0.41261   0.50000   0.00000  Uiso   1.00
H29    H     0.46213   0.42556   0.50000   0.00000  Uiso   1.00
H30    H     0.48992   0.33457   0.50000   0.00000  Uiso   1.00
H31    H     0.48792   0.27127   0.50000   0.00000  Uiso   1.00
H32    H     0.61619   0.33317   0.50000   0.00000  Uiso   1.00
C65    C     0.97921   0.52117   0.50000   0.00000  Uiso   1.00
C66    C     0.85133   0.44431   0.50000   0.00000  Uiso   1.00
C67    C     0.81602   0.44539   0.50000   0.00000  Uiso   1.00
C68    C     0.81650   0.48199   0.50000   0.00000  Uiso   1.00
C69    C     0.78075   0.48292   0.50000   0.00000  Uiso   1.00
C70    C     0.74337   0.44719   0.50000   0.00000  Uiso   1.00
C71    C     0.74408   0.41079   0.50000   0.00000  Uiso   1.00
C72    C     0.77948   0.40860   0.50000   0.00000  Uiso   1.00
O9     O     0.88950   0.47689   0.50000   0.00000  Uiso   1.00
H33    H     0.96344   0.53787   0.50000   0.00000  Uiso   1.00
H34    H     0.84465   0.51008   0.50000   0.00000  Uiso   1.00
H35    H     0.78334   0.51208   0.50000   0.00000  Uiso   1.00
H36    H     0.71698   0.38381   0.50000   0.00000  Uiso   1.00
C73    C     0.45804   0.97921   0.50000   0.00000  Uiso   1.00
C74    C     0.40702   0.85133   0.50000   0.00000  Uiso   1.00
C75    C     0.37063   0.81602   0.50000   0.00000  Uiso   1.00
C76    C     0.33451   0.81650   0.50000   0.00000  Uiso   1.00
C77    C     0.29783   0.78075   0.50000   0.00000  Uiso   1.00
C78    C     0.29618   0.74337   0.50000   0.00000  Uiso   1.00
C79    C     0.33329   0.74408   0.50000   0.00000  Uiso   1.00
C80    C     0.37088   0.77948   0.50000   0.00000  Uiso   1.00
O10    O     0.41261   0.88950   0.50000   0.00000  Uiso   1.00
H37    H     0.42556   0.96344   0.50000   0.00000  Uiso   1.00
H38    H     0.33457   0.84465   0.50000   0.00000  Uiso   1.00
H39    H     0.27127   0.78334   0.50000   0.00000  Uiso   1.00
H40    H     0.33317   0.71698   0.50000   0.00000  Uiso   1.00
C81    C     0.52117   0.54196   0.50000   0.00000  Uiso   1.00
C82    C     0.44431   0.59298   0.50000   0.00000  Uiso   1.00
C83    C     0.44539   0.62937   0.50000   0.00000  Uiso   1.00
C84    C     0.48199   0.66549   0.50000   0.00000  Uiso   1.00
C85    C     0.48292   0.70217   0.50000   0.00000  Uiso   1.00
C86    C     0.44719   0.70382   0.50000   0.00000  Uiso   1.00
C87    C     0.41079   0.66671   0.50000   0.00000  Uiso   1.00
C88    C     0.40860   0.62912   0.50000   0.00000  Uiso   1.00
O11    O     0.47689   0.58739   0.50000   0.00000  Uiso   1.00
H41    H     0.53787   0.57444   0.50000   0.00000  Uiso   1.00
H42    H     0.51008   0.66543   0.50000   0.00000  Uiso   1.00
H43    H     0.51208   0.72873   0.50000   0.00000  Uiso   1.00
H44    H     0.38381   0.66683   0.50000   0.00000  Uiso   1.00
C89    C     0.02079   0.47883   0.50000   0.00000  Uiso   1.00
C90    C     0.14867   0.55569   0.50000   0.00000  Uiso   1.00
C91    C     0.18398   0.55461   0.50000   0.00000  Uiso   1.00
C92    C     0.18350   0.51801   0.50000   0.00000  Uiso   1.00
C93    C     0.21925   0.51708   0.50000   0.00000  Uiso   1.00
C94    C     0.25663   0.55281   0.50000   0.00000  Uiso   1.00
C95    C     0.25592   0.58921   0.50000   0.00000  Uiso   1.00
C96    C     0.22052   0.59140   0.50000   0.00000  Uiso   1.00
O12    O     0.11050   0.52311   0.50000   0.00000  Uiso   1.00
H45    H     0.03656   0.46213   0.50000   0.00000  Uiso   1.00
H46    H     0.15535   0.48992   0.50000   0.00000  Uiso   1.00
H47    H     0.21666   0.48792   0.50000   0.00000  Uiso   1.00
H48    H     0.28302   0.61619   0.50000   0.00000  Uiso   1.00
C97    C     0.04149   0.52075   0.50000   0.00000  Uiso   1.00
B1     B     0.08729   0.54364   0.50000   0.00000  Uiso   1.00
C98    C     0.47925   0.52075   0.50000   0.00000  Uiso   1.00
B2     B     0.45636   0.54364   0.50000   0.00000  Uiso   1.00
C99    C     0.47925   0.95851   0.50000   0.00000  Uiso   1.00
B3     B     0.45636   0.91271   0.50000   0.00000  Uiso   1.00
C100   C     0.95851   0.47925   0.50000   0.00000  Uiso   1.00
B4     B     0.91271   0.45636   0.50000   0.00000  Uiso   1.00
C101   C     0.52075   0.47925   0.50000   0.00000  Uiso   1.00
B5     B     0.54364   0.45636   0.50000   0.00000  Uiso   1.00
C102   C     0.52075   0.04149   0.50000   0.00000  Uiso   1.00
B6     B     0.54364   0.08729   0.50000   0.00000  Uiso   1.00
loop_
_geom_bond_atom_site_label_1
_geom_bond_atom_site_label_2
_geom_bond_distance
_geom_bond_site_symmetry_2
_ccdc_geom_bond_type
C1     H1      1.084   .     S
C1     C97     1.398   .     S
C2     O1      1.375   .     S
C2     C3      1.381   .     S
C2     C90     1.437   .     S
C3     C8      1.413   .     S
C3     C4      1.400   .     S
C4     H2      1.083   .     S
C4     C5      1.395   .     S
C5     C6      1.409   .     S
C5     H3      1.077   .     S
C6     C78     1.524   .     S
C6     C7      1.416   .     S
C7     H4      1.042   .     S
C7     C8      1.407   .     S
C8     C96     1.453   .     S
O1     B1      1.460   .     S
C9     C98     1.398   .     S
C9     H5      1.084   .     S
C9     C57     1.387   .     S
C10    C11     1.381   .     S
C10    C82     1.437   .     S
C10    O2      1.375   .     S
C11    C16     1.413   .     S
C11    C12     1.400   .     S
C12    H6      1.083   .     S
C12    C13     1.395   .     S
C13    H7      1.077   .     S
C13    C14     1.409   .     S
C14    C94     1.524   .     S
C14    C15     1.416   .     S
C15    H8      1.042   .     S
C15    C16     1.407   .     S
C16    C88     1.453   .     S
O2     B2      1.460   .     S
C17    C99     1.398   .     S
C17    H9      1.084   .     S
C18    O3      1.375   .     S
C18    C74     1.437   .     S
C18    C19     1.381   .     S
C19    C20     1.400   .     S
C19    C24     1.413   .     S
C20    H10     1.083   .     S
C20    C21     1.395   .     S
C21    H11     1.077   .     S
C21    C22     1.409   .     S
C22    C23     1.416   .     S
C22    C86     1.524   .     S
C23    C24     1.407   .     S
C23    H12     1.042   .     S
C24    C80     1.453   .     S
O3     B3      1.460   .     S
C25    H13     1.084   .     S
C25    C100    1.398   .     S
C26    O4      1.375   .     S
C26    C66     1.437   .     S
C26    C27     1.381   .     S
C27    C32     1.413   .     S
C27    C28     1.400   .     S
C28    H14     1.083   .     S
C28    C29     1.395   .     S
C29    C30     1.409   .     S
C29    H15     1.077   .     S
C30    C31     1.416   .     S
C30    C54     1.524   .     S
C31    C32     1.407   .     S
C31    H16     1.042   .     S
C32    C72     1.453   .     S
O4     B4      1.460   .     S
C33    C101    1.398   .     S
C33    H17     1.084   .     S
C33    C81     1.387   .     S
C34    C35     1.381   .     S
C34    O5      1.375   .     S
C34    C58     1.437   .     S
C35    C36     1.400   .     S
C35    C40     1.413   .     S
C36    H18     1.083   .     S
C36    C37     1.395   .     S
C37    H19     1.077   .     S
C37    C38     1.409   .     S
C38    C70     1.524   .     S
C38    C39     1.416   .     S
C39    H20     1.042   .     S
C39    C40     1.407   .     S
C40    C64     1.453   .     S
O5     B5      1.460   .     S
C41    C102    1.398   .     S
C41    H21     1.084   .     S
C42    O6      1.375   .     S
C42    C50     1.437   .     S
C42    C43     1.381   .     S
C43    C44     1.400   .     S
C43    C48     1.413   .     S
C44    C45     1.395   .     S
C44    H22     1.083   .     S
C45    H23     1.077   .     S
C45    C46     1.409   .     S
C46    C47     1.416   .     S
C46    C62     1.524   .     S
C47    C48     1.407   .     S
C47    H24     1.042   .     S
C48    C56     1.453   .     S
O6     B6      1.460   .     S
C49    C102    1.398   .     S
C49    H25     1.084   .     S
C50    O7      1.375   .     S
C50    C51     1.381   .     S
C51    C52     1.400   .     S
C51    C56     1.413   .     S
C52    C53     1.395   .     S
C52    H26     1.083   .     S
C53    C54     1.409   .     S
C53    H27     1.077   .     S
C54    C55     1.416   .     S
C55    C56     1.407   .     S
C55    H28     1.042   .     S
O7     B6      1.460   .     S
C57    H29     1.084   .     S
C57    C101    1.398   .     S
C58    O8      1.375   .     S
C58    C59     1.381   .     S
C59    C64     1.413   .     S
C59    C60     1.400   .     S
C60    H30     1.083   .     S
C60    C61     1.395   .     S
C61    C62     1.409   .     S
C61    H31     1.077   .     S
C62    C63     1.416   .     S
C63    H32     1.042   .     S
C63    C64     1.407   .     S
O8     B5      1.460   .     S
C65    C100    1.398   .     S
C65    H33     1.084   .     S
C66    C67     1.381   .     S
C66    O9      1.375   .     S
C67    C68     1.400   .     S
C67    C72     1.413   .     S
C68    H34     1.083   .     S
C68    C69     1.395   .     S
C69    H35     1.077   .     S
C69    C70     1.409   .     S
C70    C71     1.416   .     S
C71    H36     1.042   .     S
C71    C72     1.407   .     S
O9     B4      1.460   .     S
C73    H37     1.084   .     S
C73    C99     1.398   .     S
C74    O10     1.375   .     S
C74    C75     1.381   .     S
C75    C76     1.400   .     S
C75    C80     1.413   .     S
C76    H38     1.083   .     S
C76    C77     1.395   .     S
C77    H39     1.077   .     S
C77    C78     1.409   .     S
C78    C79     1.416   .     S
C79    C80     1.407   .     S
C79    H40     1.042   .     S
O10    B3      1.460   .     S
C81    H41     1.084   .     S
C81    C98     1.398   .     S
C82    O11     1.375   .     S
C82    C83     1.381   .     S
C83    C88     1.413   .     S
C83    C84     1.400   .     S
C84    H42     1.083   .     S
C84    C85     1.395   .     S
C85    C86     1.409   .     S
C85    H43     1.077   .     S
C86    C87     1.416   .     S
C87    H44     1.042   .     S
C87    C88     1.407   .     S
O11    B2      1.460   .     S
C89    C97     1.398   .     S
C89    H45     1.084   .     S
C90    C91     1.381   .     S
C90    O12     1.375   .     S
C91    C96     1.413   .     S
C91    C92     1.400   .     S
C92    H46     1.083   .     S
C92    C93     1.395   .     S
C93    H47     1.077   .     S
C93    C94     1.409   .     S
C94    C95     1.416   .     S
C95    H48     1.042   .     S
C95    C96     1.407   .     S
O12    B1      1.460   .     S
C97    B1      1.528   .     S
C98    B2      1.528   .     S
C99    B3      1.528   .     S
C100   B4      1.528   .     S
C101   B5      1.528   .     S
C102   B6      1.528   .     S
