data_Star-COF-3
_audit_creation_date              2016-12-13
_audit_creation_method            'Materials Studio'
_symmetry_space_group_name_H-M    'P1'
_symmetry_Int_Tables_number       1
_symmetry_cell_setting            triclinic
loop_
_symmetry_equiv_pos_as_xyz
  x,y,z
_cell_length_a                    46.8300
_cell_length_b                    46.8300
_cell_length_c                    3.4100
_cell_angle_alpha                 90.0000
_cell_angle_beta                  90.0000
_cell_angle_gamma                 120.0000
loop_
_atom_site_label
_atom_site_type_symbol
_atom_site_fract_x
_atom_site_fract_y
_atom_site_fract_z
_atom_site_U_iso_or_equiv
_atom_site_adp_type
_atom_site_occupancy
C1     C     0.01883   0.50941   0.50000   0.00000  Uiso   1.00
C2     C     0.08947   0.54474   0.50000   0.00000  Uiso   1.00
B1     B     0.12845   0.56422   0.50000   0.00000  Uiso   1.00
C3     C     0.49059   0.50941   0.50000   0.00000  Uiso   1.00
C4     C     0.45526   0.54474   0.50000   0.00000  Uiso   1.00
B2     B     0.43578   0.56422   0.50000   0.00000  Uiso   1.00
C5     C     0.49059   0.98117   0.50000   0.00000  Uiso   1.00
C6     C     0.45526   0.91053   0.50000   0.00000  Uiso   1.00
B3     B     0.43578   0.87155   0.50000   0.00000  Uiso   1.00
C7     C     0.98117   0.49059   0.50000   0.00000  Uiso   1.00
C8     C     0.91053   0.45526   0.50000   0.00000  Uiso   1.00
B4     B     0.87155   0.43578   0.50000   0.00000  Uiso   1.00
C9     C     0.50941   0.49059   0.50000   0.00000  Uiso   1.00
C10    C     0.54474   0.45526   0.50000   0.00000  Uiso   1.00
B5     B     0.56422   0.43578   0.50000   0.00000  Uiso   1.00
C11    C     0.50941   0.01883   0.50000   0.00000  Uiso   1.00
C12    C     0.54474   0.08947   0.50000   0.00000  Uiso   1.00
B6     B     0.56422   0.12845   0.50000   0.00000  Uiso   1.00
C13    C     0.03727   0.54438   0.50000   0.00000  Uiso   1.00
C14    C     0.07186   0.56161   0.50000   0.00000  Uiso   1.00
C15    C     0.18004   0.60475   0.50000   0.00000  Uiso   1.00
C16    C     0.20953   0.63520   0.50000   0.00000  Uiso   1.00
C17    C     0.20944   0.66515   0.50000   0.00000  Uiso   1.00
C18    C     0.23905   0.69553   0.50000   0.00000  Uiso   1.00
C19    C     0.26998   0.69715   0.50000   0.00000  Uiso   1.00
C20    C     0.26921   0.66650   0.50000   0.00000  Uiso   1.00
C21    C     0.23988   0.63540   0.50000   0.00000  Uiso   1.00
O1     O     0.14836   0.60032   0.50000   0.00000  Uiso   1.00
H1     H     0.02570   0.55927   0.50000   0.00000  Uiso   1.00
H2     H     0.08482   0.58832   0.50000   0.00000  Uiso   1.00
H3     H     0.18631   0.66516   0.50000   0.00000  Uiso   1.00
H4     H     0.23704   0.71747   0.50000   0.00000  Uiso   1.00
H5     H     0.29165   0.66674   0.50000   0.00000  Uiso   1.00
C22    C     0.45562   0.49289   0.50000   0.00000  Uiso   1.00
C23    C     0.43839   0.51025   0.50000   0.00000  Uiso   1.00
C24    C     0.39525   0.57529   0.50000   0.00000  Uiso   1.00
C25    C     0.36480   0.57433   0.50000   0.00000  Uiso   1.00
C26    C     0.33485   0.54429   0.50000   0.00000  Uiso   1.00
C27    C     0.30447   0.54352   0.50000   0.00000  Uiso   1.00
C28    C     0.30285   0.57283   0.50000   0.00000  Uiso   1.00
C29    C     0.33350   0.60271   0.50000   0.00000  Uiso   1.00
C30    C     0.36460   0.60448   0.50000   0.00000  Uiso   1.00
O2     O     0.39968   0.54804   0.50000   0.00000  Uiso   1.00
H6     H     0.44073   0.46643   0.50000   0.00000  Uiso   1.00
H7     H     0.41168   0.49650   0.50000   0.00000  Uiso   1.00
H8     H     0.33484   0.52115   0.50000   0.00000  Uiso   1.00
H9     H     0.28253   0.51957   0.50000   0.00000  Uiso   1.00
H10    H     0.33326   0.62491   0.50000   0.00000  Uiso   1.00
C31    C     0.50711   0.96273   0.50000   0.00000  Uiso   1.00
C32    C     0.48975   0.92814   0.50000   0.00000  Uiso   1.00
C33    C     0.42471   0.81996   0.50000   0.00000  Uiso   1.00
C34    C     0.42567   0.79047   0.50000   0.00000  Uiso   1.00
C35    C     0.45571   0.79056   0.50000   0.00000  Uiso   1.00
C36    C     0.45648   0.76095   0.50000   0.00000  Uiso   1.00
C37    C     0.42717   0.73002   0.50000   0.00000  Uiso   1.00
C38    C     0.39729   0.73079   0.50000   0.00000  Uiso   1.00
C39    C     0.39552   0.76012   0.50000   0.00000  Uiso   1.00
O3     O     0.45196   0.85164   0.50000   0.00000  Uiso   1.00
H11    H     0.53357   0.97430   0.50000   0.00000  Uiso   1.00
H12    H     0.50350   0.91518   0.50000   0.00000  Uiso   1.00
H13    H     0.47885   0.81369   0.50000   0.00000  Uiso   1.00
H14    H     0.48043   0.76296   0.50000   0.00000  Uiso   1.00
H15    H     0.37509   0.70835   0.50000   0.00000  Uiso   1.00
C40    C     0.96273   0.45562   0.50000   0.00000  Uiso   1.00
C41    C     0.92814   0.43839   0.50000   0.00000  Uiso   1.00
C42    C     0.81996   0.39525   0.50000   0.00000  Uiso   1.00
C43    C     0.79047   0.36480   0.50000   0.00000  Uiso   1.00
C44    C     0.79056   0.33485   0.50000   0.00000  Uiso   1.00
C45    C     0.76095   0.30447   0.50000   0.00000  Uiso   1.00
C46    C     0.73002   0.30285   0.50000   0.00000  Uiso   1.00
C47    C     0.73079   0.33350   0.50000   0.00000  Uiso   1.00
C48    C     0.76012   0.36460   0.50000   0.00000  Uiso   1.00
O4     O     0.85164   0.39968   0.50000   0.00000  Uiso   1.00
H16    H     0.97430   0.44073   0.50000   0.00000  Uiso   1.00
H17    H     0.91518   0.41168   0.50000   0.00000  Uiso   1.00
H18    H     0.81369   0.33484   0.50000   0.00000  Uiso   1.00
H19    H     0.76296   0.28253   0.50000   0.00000  Uiso   1.00
H20    H     0.70835   0.33326   0.50000   0.00000  Uiso   1.00
C49    C     0.54438   0.50711   0.50000   0.00000  Uiso   1.00
C50    C     0.56161   0.48975   0.50000   0.00000  Uiso   1.00
C51    C     0.60475   0.42471   0.50000   0.00000  Uiso   1.00
C52    C     0.63520   0.42567   0.50000   0.00000  Uiso   1.00
C53    C     0.66515   0.45571   0.50000   0.00000  Uiso   1.00
C54    C     0.69553   0.45648   0.50000   0.00000  Uiso   1.00
C55    C     0.69715   0.42717   0.50000   0.00000  Uiso   1.00
C56    C     0.66650   0.39729   0.50000   0.00000  Uiso   1.00
C57    C     0.63540   0.39552   0.50000   0.00000  Uiso   1.00
O5     O     0.60032   0.45196   0.50000   0.00000  Uiso   1.00
H21    H     0.55927   0.53357   0.50000   0.00000  Uiso   1.00
H22    H     0.58832   0.50350   0.50000   0.00000  Uiso   1.00
H23    H     0.66516   0.47885   0.50000   0.00000  Uiso   1.00
H24    H     0.71747   0.48043   0.50000   0.00000  Uiso   1.00
H25    H     0.66674   0.37509   0.50000   0.00000  Uiso   1.00
C58    C     0.49289   0.03727   0.50000   0.00000  Uiso   1.00
C59    C     0.51025   0.07186   0.50000   0.00000  Uiso   1.00
C60    C     0.57529   0.18004   0.50000   0.00000  Uiso   1.00
C61    C     0.57433   0.20953   0.50000   0.00000  Uiso   1.00
C62    C     0.54429   0.20944   0.50000   0.00000  Uiso   1.00
C63    C     0.54352   0.23905   0.50000   0.00000  Uiso   1.00
C64    C     0.57283   0.26998   0.50000   0.00000  Uiso   1.00
C65    C     0.60271   0.26921   0.50000   0.00000  Uiso   1.00
C66    C     0.60448   0.23988   0.50000   0.00000  Uiso   1.00
O6     O     0.54804   0.14836   0.50000   0.00000  Uiso   1.00
H26    H     0.46643   0.02570   0.50000   0.00000  Uiso   1.00
H27    H     0.49650   0.08482   0.50000   0.00000  Uiso   1.00
H28    H     0.52115   0.18631   0.50000   0.00000  Uiso   1.00
H29    H     0.51957   0.23704   0.50000   0.00000  Uiso   1.00
H30    H     0.62491   0.29165   0.50000   0.00000  Uiso   1.00
C67    C     0.54438   0.03727   0.50000   0.00000  Uiso   1.00
C68    C     0.56161   0.07186   0.50000   0.00000  Uiso   1.00
C69    C     0.60475   0.18004   0.50000   0.00000  Uiso   1.00
C70    C     0.63520   0.20953   0.50000   0.00000  Uiso   1.00
C71    C     0.66515   0.20944   0.50000   0.00000  Uiso   1.00
C72    C     0.69553   0.23905   0.50000   0.00000  Uiso   1.00
C73    C     0.69715   0.26998   0.50000   0.00000  Uiso   1.00
C74    C     0.66650   0.26921   0.50000   0.00000  Uiso   1.00
C75    C     0.63540   0.23988   0.50000   0.00000  Uiso   1.00
O7     O     0.60032   0.14836   0.50000   0.00000  Uiso   1.00
H31    H     0.55927   0.02570   0.50000   0.00000  Uiso   1.00
H32    H     0.58832   0.08482   0.50000   0.00000  Uiso   1.00
H33    H     0.66516   0.18631   0.50000   0.00000  Uiso   1.00
H34    H     0.71747   0.23704   0.50000   0.00000  Uiso   1.00
H35    H     0.66674   0.29165   0.50000   0.00000  Uiso   1.00
C76    C     0.49289   0.45562   0.50000   0.00000  Uiso   1.00
C77    C     0.51025   0.43839   0.50000   0.00000  Uiso   1.00
C78    C     0.57529   0.39525   0.50000   0.00000  Uiso   1.00
C79    C     0.57433   0.36480   0.50000   0.00000  Uiso   1.00
C80    C     0.54429   0.33485   0.50000   0.00000  Uiso   1.00
C81    C     0.54352   0.30447   0.50000   0.00000  Uiso   1.00
C82    C     0.57283   0.30285   0.50000   0.00000  Uiso   1.00
C83    C     0.60271   0.33350   0.50000   0.00000  Uiso   1.00
C84    C     0.60448   0.36460   0.50000   0.00000  Uiso   1.00
O8     O     0.54804   0.39968   0.50000   0.00000  Uiso   1.00
H36    H     0.46643   0.44073   0.50000   0.00000  Uiso   1.00
H37    H     0.49650   0.41168   0.50000   0.00000  Uiso   1.00
H38    H     0.52115   0.33484   0.50000   0.00000  Uiso   1.00
H39    H     0.51957   0.28253   0.50000   0.00000  Uiso   1.00
H40    H     0.62491   0.33326   0.50000   0.00000  Uiso   1.00
C85    C     0.96273   0.50711   0.50000   0.00000  Uiso   1.00
C86    C     0.92814   0.48975   0.50000   0.00000  Uiso   1.00
C87    C     0.81996   0.42471   0.50000   0.00000  Uiso   1.00
C88    C     0.79047   0.42567   0.50000   0.00000  Uiso   1.00
C89    C     0.79056   0.45571   0.50000   0.00000  Uiso   1.00
C90    C     0.76095   0.45648   0.50000   0.00000  Uiso   1.00
C91    C     0.73002   0.42717   0.50000   0.00000  Uiso   1.00
C92    C     0.73079   0.39729   0.50000   0.00000  Uiso   1.00
C93    C     0.76012   0.39552   0.50000   0.00000  Uiso   1.00
O9     O     0.85164   0.45196   0.50000   0.00000  Uiso   1.00
H41    H     0.97430   0.53357   0.50000   0.00000  Uiso   1.00
H42    H     0.91518   0.50350   0.50000   0.00000  Uiso   1.00
H43    H     0.81369   0.47885   0.50000   0.00000  Uiso   1.00
H44    H     0.76296   0.48043   0.50000   0.00000  Uiso   1.00
H45    H     0.70835   0.37509   0.50000   0.00000  Uiso   1.00
C94    C     0.45562   0.96273   0.50000   0.00000  Uiso   1.00
C95    C     0.43839   0.92814   0.50000   0.00000  Uiso   1.00
C96    C     0.39525   0.81996   0.50000   0.00000  Uiso   1.00
C97    C     0.36480   0.79047   0.50000   0.00000  Uiso   1.00
C98    C     0.33485   0.79056   0.50000   0.00000  Uiso   1.00
C99    C     0.30447   0.76095   0.50000   0.00000  Uiso   1.00
C100   C     0.30285   0.73002   0.50000   0.00000  Uiso   1.00
C101   C     0.33350   0.73079   0.50000   0.00000  Uiso   1.00
C102   C     0.36460   0.76012   0.50000   0.00000  Uiso   1.00
O10    O     0.39968   0.85164   0.50000   0.00000  Uiso   1.00
H46    H     0.44073   0.97430   0.50000   0.00000  Uiso   1.00
H47    H     0.41168   0.91518   0.50000   0.00000  Uiso   1.00
H48    H     0.33484   0.81369   0.50000   0.00000  Uiso   1.00
H49    H     0.28253   0.76296   0.50000   0.00000  Uiso   1.00
H50    H     0.33326   0.70835   0.50000   0.00000  Uiso   1.00
C103   C     0.50711   0.54438   0.50000   0.00000  Uiso   1.00
C104   C     0.48975   0.56161   0.50000   0.00000  Uiso   1.00
C105   C     0.42471   0.60475   0.50000   0.00000  Uiso   1.00
C106   C     0.42567   0.63520   0.50000   0.00000  Uiso   1.00
C107   C     0.45571   0.66515   0.50000   0.00000  Uiso   1.00
C108   C     0.45648   0.69553   0.50000   0.00000  Uiso   1.00
C109   C     0.42717   0.69715   0.50000   0.00000  Uiso   1.00
C110   C     0.39729   0.66650   0.50000   0.00000  Uiso   1.00
C111   C     0.39552   0.63540   0.50000   0.00000  Uiso   1.00
O11    O     0.45196   0.60032   0.50000   0.00000  Uiso   1.00
H51    H     0.53357   0.55927   0.50000   0.00000  Uiso   1.00
H52    H     0.50350   0.58832   0.50000   0.00000  Uiso   1.00
H53    H     0.47885   0.66516   0.50000   0.00000  Uiso   1.00
H54    H     0.48043   0.71747   0.50000   0.00000  Uiso   1.00
H55    H     0.37509   0.66674   0.50000   0.00000  Uiso   1.00
C112   C     0.03727   0.49289   0.50000   0.00000  Uiso   1.00
C113   C     0.07186   0.51025   0.50000   0.00000  Uiso   1.00
C114   C     0.18004   0.57529   0.50000   0.00000  Uiso   1.00
C115   C     0.20953   0.57433   0.50000   0.00000  Uiso   1.00
C116   C     0.20944   0.54429   0.50000   0.00000  Uiso   1.00
C117   C     0.23905   0.54352   0.50000   0.00000  Uiso   1.00
C118   C     0.26998   0.57283   0.50000   0.00000  Uiso   1.00
C119   C     0.26921   0.60271   0.50000   0.00000  Uiso   1.00
C120   C     0.23988   0.60448   0.50000   0.00000  Uiso   1.00
O12    O     0.14836   0.54804   0.50000   0.00000  Uiso   1.00
H56    H     0.02570   0.46643   0.50000   0.00000  Uiso   1.00
H57    H     0.08482   0.49650   0.50000   0.00000  Uiso   1.00
H58    H     0.18631   0.52115   0.50000   0.00000  Uiso   1.00
H59    H     0.23704   0.51957   0.50000   0.00000  Uiso   1.00
H60    H     0.29165   0.62491   0.50000   0.00000  Uiso   1.00
loop_
_geom_bond_atom_site_label_1
_geom_bond_atom_site_label_2
_geom_bond_distance
_geom_bond_site_symmetry_2
_ccdc_geom_bond_type
C1     C112    1.419   .     S
C1     C13     1.419   .     S
C2     B1      1.581   .     S
C2     C14     1.399   .     S
C2     C113    1.399   .     S
B1     O12     1.467   .     S
B1     O1      1.467   .     S
C3     C9      1.527   .     S
C3     C22     1.419   .     S
C3     C103    1.419   .     S
C4     B2      1.581   .     S
C4     C104    1.399   .     S
C4     C23     1.399   .     S
B2     O2      1.467   .     S
B2     O11     1.467   .     S
C5     C31     1.419   .     S
C5     C94     1.419   .     S
C6     C32     1.399   .     S
C6     C95     1.399   .     S
C6     B3      1.581   .     S
B3     O3      1.467   .     S
B3     O10     1.467   .     S
C7     C85     1.419   .     S
C7     C40     1.419   .     S
C8     C41     1.399   .     S
C8     C86     1.399   .     S
C8     B4      1.581   .     S
B4     O4      1.467   .     S
B4     O9      1.467   .     S
C9     C49     1.419   .     S
C9     C76     1.419   .     S
C10    C77     1.399   .     S
C10    C50     1.399   .     S
C10    B5      1.581   .     S
B5     O8      1.467   .     S
B5     O5      1.467   .     S
C11    C67     1.419   .     S
C11    C58     1.419   .     S
C12    B6      1.581   .     S
C12    C68     1.399   .     S
C12    C59     1.399   .     S
B6     O7      1.467   .     S
B6     O6      1.467   .     S
C13    H1      1.076   .     S
C13    C14     1.403   .     S
C14    H2      1.083   .     S
C15    O1      1.391   .     S
C15    C114    1.380   .     S
C15    C16     1.404   .     S
C16    C21     1.417   .     S
C16    C17     1.405   .     S
C17    H3      1.083   .     S
C17    C18     1.405   .     S
C18    C19     1.412   .     S
C18    H4      1.077   .     S
C19    C20     1.418   .     S
C19    C100    1.540   .     S
C20    H5      1.045   .     S
C20    C21     1.417   .     S
C21    C120    1.448   .     S
C22    C23     1.403   .     S
C22    H6      1.076   .     S
C23    H7      1.083   .     S
C24    C25     1.404   .     S
C24    C105    1.380   .     S
C24    O2      1.391   .     S
C25    C30     1.417   .     S
C25    C26     1.405   .     S
C26    C27     1.405   .     S
C26    H8      1.083   .     S
C27    C28     1.412   .     S
C27    H9      1.077   .     S
C28    C29     1.418   .     S
C28    C118    1.540   .     S
C29    C30     1.417   .     S
C29    H10     1.045   .     S
C30    C111    1.448   .     S
C31    H11     1.076   .     S
C31    C32     1.403   .     S
C32    H12     1.083   .     S
C33    C34     1.404   .     S
C33    C96     1.380   .     S
C33    O3      1.391   .     S
C34    C35     1.405   .     S
C34    C39     1.417   .     S
C35    H13     1.083   .     S
C35    C36     1.405   .     S
C36    H14     1.077   .     S
C36    C37     1.412   .     S
C37    C38     1.418   .     S
C37    C109    1.540   .     S
C38    H15     1.045   .     S
C38    C39     1.417   .     S
C39    C102    1.448   .     S
C40    H16     1.076   .     S
C40    C41     1.403   .     S
C41    H17     1.083   .     S
C42    C87     1.380   .     S
C42    O4      1.391   .     S
C42    C43     1.404   .     S
C43    C48     1.417   .     S
C43    C44     1.405   .     S
C44    H18     1.083   .     S
C44    C45     1.405   .     S
C45    H19     1.077   .     S
C45    C46     1.412   .     S
C46    C73     1.540   .     S
C46    C47     1.418   .     S
C47    H20     1.045   .     S
C47    C48     1.417   .     S
C48    C93     1.448   .     S
C49    C50     1.403   .     S
C49    H21     1.076   .     S
C50    H22     1.083   .     S
C51    C78     1.380   .     S
C51    C52     1.404   .     S
C51    O5      1.391   .     S
C52    C57     1.417   .     S
C52    C53     1.405   .     S
C53    H23     1.083   .     S
C53    C54     1.405   .     S
C54    H24     1.077   .     S
C54    C55     1.412   .     S
C55    C56     1.418   .     S
C55    C91     1.540   .     S
C56    C57     1.417   .     S
C56    H25     1.045   .     S
C57    C84     1.448   .     S
C58    H26     1.076   .     S
C58    C59     1.403   .     S
C59    H27     1.083   .     S
C60    C61     1.404   .     S
C60    C69     1.380   .     S
C60    O6      1.391   .     S
C61    C62     1.405   .     S
C61    C66     1.417   .     S
C62    H28     1.083   .     S
C62    C63     1.405   .     S
C63    H29     1.077   .     S
C63    C64     1.412   .     S
C64    C82     1.540   .     S
C64    C65     1.418   .     S
C65    H30     1.045   .     S
C65    C66     1.417   .     S
C66    C75     1.448   .     S
C67    H31     1.076   .     S
C67    C68     1.403   .     S
C68    H32     1.083   .     S
C69    C70     1.404   .     S
C69    O7      1.391   .     S
C70    C71     1.405   .     S
C70    C75     1.417   .     S
C71    H33     1.083   .     S
C71    C72     1.405   .     S
C72    H34     1.077   .     S
C72    C73     1.412   .     S
C73    C74     1.418   .     S
C74    H35     1.045   .     S
C74    C75     1.417   .     S
C76    C77     1.403   .     S
C76    H36     1.076   .     S
C77    H37     1.083   .     S
C78    O8      1.391   .     S
C78    C79     1.404   .     S
C79    C84     1.417   .     S
C79    C80     1.405   .     S
C80    H38     1.083   .     S
C80    C81     1.405   .     S
C81    H39     1.077   .     S
C81    C82     1.412   .     S
C82    C83     1.418   .     S
C83    H40     1.045   .     S
C83    C84     1.417   .     S
C85    C86     1.403   .     S
C85    H41     1.076   .     S
C86    H42     1.083   .     S
C87    C88     1.404   .     S
C87    O9      1.391   .     S
C88    C93     1.417   .     S
C88    C89     1.405   .     S
C89    C90     1.405   .     S
C89    H43     1.083   .     S
C90    H44     1.077   .     S
C90    C91     1.412   .     S
C91    C92     1.418   .     S
C92    C93     1.417   .     S
C92    H45     1.045   .     S
C94    H46     1.076   .     S
C94    C95     1.403   .     S
C95    H47     1.083   .     S
C96    C97     1.404   .     S
C96    O10     1.391   .     S
C97    C98     1.405   .     S
C97    C102    1.417   .     S
C98    H48     1.083   .     S
C98    C99     1.405   .     S
C99    H49     1.077   .     S
C99    C100    1.412   .     S
C100   C101    1.418   .     S
C101   H50     1.045   .     S
C101   C102    1.417   .     S
C103   H51     1.076   .     S
C103   C104    1.403   .     S
C104   H52     1.083   .     S
C105   O11     1.391   .     S
C105   C106    1.404   .     S
C106   C111    1.417   .     S
C106   C107    1.405   .     S
C107   H53     1.083   .     S
C107   C108    1.405   .     S
C108   C109    1.412   .     S
C108   H54     1.077   .     S
C109   C110    1.418   .     S
C110   H55     1.045   .     S
C110   C111    1.417   .     S
C112   C113    1.403   .     S
C112   H56     1.076   .     S
C113   H57     1.083   .     S
C114   C115    1.404   .     S
C114   O12     1.391   .     S
C115   C120    1.417   .     S
C115   C116    1.405   .     S
C116   C117    1.405   .     S
C116   H58     1.083   .     S
C117   C118    1.412   .     S
C117   H59     1.077   .     S
C118   C119    1.418   .     S
C119   C120    1.417   .     S
C119   H60     1.045   .     S
