data_Star-COF-2
_audit_creation_date              2016-12-13
_audit_creation_method            'Materials Studio'
_symmetry_space_group_name_H-M    'P1'
_symmetry_Int_Tables_number       1
_symmetry_cell_setting            triclinic
loop_
_symmetry_equiv_pos_as_xyz
  x,y,z
_cell_length_a                    46.3300
_cell_length_b                    46.3300
_cell_length_c                    3.4200
_cell_angle_alpha                 90.0000
_cell_angle_beta                  90.0000
_cell_angle_gamma                 120.0000
loop_
_atom_site_label
_atom_site_type_symbol
_atom_site_fract_x
_atom_site_fract_y
_atom_site_fract_z
_atom_site_U_iso_or_equiv
_atom_site_adp_type
_atom_site_occupancy
C1     C     0.01880   0.56390   0.50000   0.00000  Uiso   1.00
C2     C     0.03650   0.54610   0.50000   0.00000  Uiso   1.00
C3     C     0.07210   0.56390   0.50000   0.00000  Uiso   1.00
C4     C     0.18020   0.60670   0.50000   0.00000  Uiso   1.00
C5     C     0.21090   0.63730   0.50000   0.00000  Uiso   1.00
C6     C     0.21100   0.66820   0.50000   0.00000  Uiso   1.00
C7     C     0.23940   0.69660   0.50000   0.00000  Uiso   1.00
C8     C     0.27030   0.69660   0.50000   0.00000  Uiso   1.00
C9     C     0.27030   0.66580   0.50000   0.00000  Uiso   1.00
C10    C     0.24180   0.63730   0.50000   0.00000  Uiso   1.00
O1     O     0.14380   0.59870   0.50000   0.00000  Uiso   1.00
H1     H     0.03202   0.59088   0.50000   0.00000  Uiso   1.00
H2     H     0.08582   0.59098   0.50000   0.00000  Uiso   1.00
H3     H     0.18767   0.66833   0.50000   0.00000  Uiso   1.00
H4     H     0.23742   0.71871   0.50000   0.00000  Uiso   1.00
H5     H     0.29270   0.66659   0.50000   0.00000  Uiso   1.00
C11    C     0.43610   0.45490   0.50000   0.00000  Uiso   1.00
C12    C     0.45390   0.49040   0.50000   0.00000  Uiso   1.00
C13    C     0.43610   0.50820   0.50000   0.00000  Uiso   1.00
C14    C     0.39330   0.57350   0.50000   0.00000  Uiso   1.00
C15    C     0.36270   0.57360   0.50000   0.00000  Uiso   1.00
C16    C     0.33180   0.54280   0.50000   0.00000  Uiso   1.00
C17    C     0.30340   0.54280   0.50000   0.00000  Uiso   1.00
C18    C     0.30340   0.57370   0.50000   0.00000  Uiso   1.00
C19    C     0.33420   0.60450   0.50000   0.00000  Uiso   1.00
C20    C     0.36270   0.60450   0.50000   0.00000  Uiso   1.00
O2     O     0.40130   0.54510   0.50000   0.00000  Uiso   1.00
H6     H     0.40912   0.44114   0.50000   0.00000  Uiso   1.00
H7     H     0.40902   0.49484   0.50000   0.00000  Uiso   1.00
H8     H     0.33167   0.51934   0.50000   0.00000  Uiso   1.00
H9     H     0.28129   0.51870   0.50000   0.00000  Uiso   1.00
H10    H     0.33341   0.62611   0.50000   0.00000  Uiso   1.00
C21    C     0.54510   0.98120   0.50000   0.00000  Uiso   1.00
C22    C     0.50960   0.96350   0.50000   0.00000  Uiso   1.00
C23    C     0.49180   0.92790   0.50000   0.00000  Uiso   1.00
C24    C     0.42650   0.81980   0.50000   0.00000  Uiso   1.00
C25    C     0.42640   0.78910   0.50000   0.00000  Uiso   1.00
C26    C     0.45720   0.78900   0.50000   0.00000  Uiso   1.00
C27    C     0.45720   0.76060   0.50000   0.00000  Uiso   1.00
C28    C     0.42630   0.72970   0.50000   0.00000  Uiso   1.00
C29    C     0.39550   0.72970   0.50000   0.00000  Uiso   1.00
C30    C     0.39550   0.75820   0.50000   0.00000  Uiso   1.00
O3     O     0.45490   0.85620   0.50000   0.00000  Uiso   1.00
H11    H     0.55886   0.96798   0.50000   0.00000  Uiso   1.00
H12    H     0.50516   0.91418   0.50000   0.00000  Uiso   1.00
H13    H     0.48066   0.81233   0.50000   0.00000  Uiso   1.00
H14    H     0.48130   0.76258   0.50000   0.00000  Uiso   1.00
H15    H     0.37389   0.70730   0.50000   0.00000  Uiso   1.00
C31    C     0.98120   0.43610   0.50000   0.00000  Uiso   1.00
C32    C     0.96350   0.45390   0.50000   0.00000  Uiso   1.00
C33    C     0.92790   0.43610   0.50000   0.00000  Uiso   1.00
C34    C     0.81980   0.39330   0.50000   0.00000  Uiso   1.00
C35    C     0.78910   0.36270   0.50000   0.00000  Uiso   1.00
C36    C     0.78900   0.33180   0.50000   0.00000  Uiso   1.00
C37    C     0.76060   0.30340   0.50000   0.00000  Uiso   1.00
C38    C     0.72970   0.30340   0.50000   0.00000  Uiso   1.00
C39    C     0.72970   0.33420   0.50000   0.00000  Uiso   1.00
C40    C     0.75820   0.36270   0.50000   0.00000  Uiso   1.00
O4     O     0.85620   0.40130   0.50000   0.00000  Uiso   1.00
H16    H     0.96798   0.40912   0.50000   0.00000  Uiso   1.00
H17    H     0.91418   0.40902   0.50000   0.00000  Uiso   1.00
H18    H     0.81233   0.33167   0.50000   0.00000  Uiso   1.00
H19    H     0.76258   0.28129   0.50000   0.00000  Uiso   1.00
H20    H     0.70730   0.33341   0.50000   0.00000  Uiso   1.00
C41    C     0.56390   0.54510   0.50000   0.00000  Uiso   1.00
C42    C     0.54610   0.50960   0.50000   0.00000  Uiso   1.00
C43    C     0.56390   0.49180   0.50000   0.00000  Uiso   1.00
C44    C     0.60670   0.42650   0.50000   0.00000  Uiso   1.00
C45    C     0.63730   0.42640   0.50000   0.00000  Uiso   1.00
C46    C     0.66820   0.45720   0.50000   0.00000  Uiso   1.00
C47    C     0.69660   0.45720   0.50000   0.00000  Uiso   1.00
C48    C     0.69660   0.42630   0.50000   0.00000  Uiso   1.00
C49    C     0.66580   0.39550   0.50000   0.00000  Uiso   1.00
C50    C     0.63730   0.39550   0.50000   0.00000  Uiso   1.00
O5     O     0.59870   0.45490   0.50000   0.00000  Uiso   1.00
H21    H     0.59088   0.55886   0.50000   0.00000  Uiso   1.00
H22    H     0.59098   0.50516   0.50000   0.00000  Uiso   1.00
H23    H     0.66833   0.48066   0.50000   0.00000  Uiso   1.00
H24    H     0.71871   0.48130   0.50000   0.00000  Uiso   1.00
H25    H     0.66659   0.37389   0.50000   0.00000  Uiso   1.00
C51    C     0.45490   0.01880   0.50000   0.00000  Uiso   1.00
C52    C     0.49040   0.03650   0.50000   0.00000  Uiso   1.00
C53    C     0.50820   0.07210   0.50000   0.00000  Uiso   1.00
C54    C     0.57350   0.18020   0.50000   0.00000  Uiso   1.00
C55    C     0.57360   0.21090   0.50000   0.00000  Uiso   1.00
C56    C     0.54280   0.21100   0.50000   0.00000  Uiso   1.00
C57    C     0.54280   0.23940   0.50000   0.00000  Uiso   1.00
C58    C     0.57370   0.27030   0.50000   0.00000  Uiso   1.00
C59    C     0.60450   0.27030   0.50000   0.00000  Uiso   1.00
C60    C     0.60450   0.24180   0.50000   0.00000  Uiso   1.00
O6     O     0.54510   0.14380   0.50000   0.00000  Uiso   1.00
H26    H     0.44114   0.03202   0.50000   0.00000  Uiso   1.00
H27    H     0.49484   0.08582   0.50000   0.00000  Uiso   1.00
H28    H     0.51934   0.18767   0.50000   0.00000  Uiso   1.00
H29    H     0.51870   0.23742   0.50000   0.00000  Uiso   1.00
H30    H     0.62611   0.29270   0.50000   0.00000  Uiso   1.00
C61    C     0.56390   0.01880   0.50000   0.00000  Uiso   1.00
C62    C     0.54610   0.03650   0.50000   0.00000  Uiso   1.00
C63    C     0.56390   0.07210   0.50000   0.00000  Uiso   1.00
C64    C     0.60670   0.18020   0.50000   0.00000  Uiso   1.00
C65    C     0.63730   0.21090   0.50000   0.00000  Uiso   1.00
C66    C     0.66820   0.21100   0.50000   0.00000  Uiso   1.00
C67    C     0.69660   0.23940   0.50000   0.00000  Uiso   1.00
C68    C     0.69660   0.27030   0.50000   0.00000  Uiso   1.00
C69    C     0.66580   0.27030   0.50000   0.00000  Uiso   1.00
C70    C     0.63730   0.24180   0.50000   0.00000  Uiso   1.00
O7     O     0.59870   0.14380   0.50000   0.00000  Uiso   1.00
H31    H     0.59088   0.03202   0.50000   0.00000  Uiso   1.00
H32    H     0.59098   0.08582   0.50000   0.00000  Uiso   1.00
H33    H     0.66833   0.18767   0.50000   0.00000  Uiso   1.00
H34    H     0.71871   0.23742   0.50000   0.00000  Uiso   1.00
H35    H     0.66659   0.29270   0.50000   0.00000  Uiso   1.00
C71    C     0.45490   0.43610   0.50000   0.00000  Uiso   1.00
C72    C     0.49040   0.45390   0.50000   0.00000  Uiso   1.00
C73    C     0.50820   0.43610   0.50000   0.00000  Uiso   1.00
C74    C     0.57350   0.39330   0.50000   0.00000  Uiso   1.00
C75    C     0.57360   0.36270   0.50000   0.00000  Uiso   1.00
C76    C     0.54280   0.33180   0.50000   0.00000  Uiso   1.00
C77    C     0.54280   0.30340   0.50000   0.00000  Uiso   1.00
C78    C     0.57370   0.30340   0.50000   0.00000  Uiso   1.00
C79    C     0.60450   0.33420   0.50000   0.00000  Uiso   1.00
C80    C     0.60450   0.36270   0.50000   0.00000  Uiso   1.00
O8     O     0.54510   0.40130   0.50000   0.00000  Uiso   1.00
H36    H     0.44114   0.40912   0.50000   0.00000  Uiso   1.00
H37    H     0.49484   0.40902   0.50000   0.00000  Uiso   1.00
H38    H     0.51934   0.33167   0.50000   0.00000  Uiso   1.00
H39    H     0.51870   0.28129   0.50000   0.00000  Uiso   1.00
H40    H     0.62611   0.33341   0.50000   0.00000  Uiso   1.00
C81    C     0.98120   0.54510   0.50000   0.00000  Uiso   1.00
C82    C     0.96350   0.50960   0.50000   0.00000  Uiso   1.00
C83    C     0.92790   0.49180   0.50000   0.00000  Uiso   1.00
C84    C     0.81980   0.42650   0.50000   0.00000  Uiso   1.00
C85    C     0.78910   0.42640   0.50000   0.00000  Uiso   1.00
C86    C     0.78900   0.45720   0.50000   0.00000  Uiso   1.00
C87    C     0.76060   0.45720   0.50000   0.00000  Uiso   1.00
C88    C     0.72970   0.42630   0.50000   0.00000  Uiso   1.00
C89    C     0.72970   0.39550   0.50000   0.00000  Uiso   1.00
C90    C     0.75820   0.39550   0.50000   0.00000  Uiso   1.00
O9     O     0.85620   0.45490   0.50000   0.00000  Uiso   1.00
H41    H     0.96798   0.55886   0.50000   0.00000  Uiso   1.00
H42    H     0.91418   0.50516   0.50000   0.00000  Uiso   1.00
H43    H     0.81233   0.48066   0.50000   0.00000  Uiso   1.00
H44    H     0.76258   0.48130   0.50000   0.00000  Uiso   1.00
H45    H     0.70730   0.37389   0.50000   0.00000  Uiso   1.00
C91    C     0.43610   0.98120   0.50000   0.00000  Uiso   1.00
C92    C     0.45390   0.96350   0.50000   0.00000  Uiso   1.00
C93    C     0.43610   0.92790   0.50000   0.00000  Uiso   1.00
C94    C     0.39330   0.81980   0.50000   0.00000  Uiso   1.00
C95    C     0.36270   0.78910   0.50000   0.00000  Uiso   1.00
C96    C     0.33180   0.78900   0.50000   0.00000  Uiso   1.00
C97    C     0.30340   0.76060   0.50000   0.00000  Uiso   1.00
C98    C     0.30340   0.72970   0.50000   0.00000  Uiso   1.00
C99    C     0.33420   0.72970   0.50000   0.00000  Uiso   1.00
C100   C     0.36270   0.75820   0.50000   0.00000  Uiso   1.00
O10    O     0.40130   0.85620   0.50000   0.00000  Uiso   1.00
H46    H     0.40912   0.96798   0.50000   0.00000  Uiso   1.00
H47    H     0.40902   0.91418   0.50000   0.00000  Uiso   1.00
H48    H     0.33167   0.81233   0.50000   0.00000  Uiso   1.00
H49    H     0.28129   0.76258   0.50000   0.00000  Uiso   1.00
H50    H     0.33341   0.70730   0.50000   0.00000  Uiso   1.00
C101   C     0.54510   0.56390   0.50000   0.00000  Uiso   1.00
C102   C     0.50960   0.54610   0.50000   0.00000  Uiso   1.00
C103   C     0.49180   0.56390   0.50000   0.00000  Uiso   1.00
C104   C     0.42650   0.60670   0.50000   0.00000  Uiso   1.00
C105   C     0.42640   0.63730   0.50000   0.00000  Uiso   1.00
C106   C     0.45720   0.66820   0.50000   0.00000  Uiso   1.00
C107   C     0.45720   0.69660   0.50000   0.00000  Uiso   1.00
C108   C     0.42630   0.69660   0.50000   0.00000  Uiso   1.00
C109   C     0.39550   0.66580   0.50000   0.00000  Uiso   1.00
C110   C     0.39550   0.63730   0.50000   0.00000  Uiso   1.00
O11    O     0.45490   0.59870   0.50000   0.00000  Uiso   1.00
H51    H     0.55886   0.59088   0.50000   0.00000  Uiso   1.00
H52    H     0.50516   0.59098   0.50000   0.00000  Uiso   1.00
H53    H     0.48066   0.66833   0.50000   0.00000  Uiso   1.00
H54    H     0.48130   0.71871   0.50000   0.00000  Uiso   1.00
H55    H     0.37389   0.66659   0.50000   0.00000  Uiso   1.00
C111   C     0.01880   0.45490   0.50000   0.00000  Uiso   1.00
C112   C     0.03650   0.49040   0.50000   0.00000  Uiso   1.00
C113   C     0.07210   0.50820   0.50000   0.00000  Uiso   1.00
C114   C     0.18020   0.57350   0.50000   0.00000  Uiso   1.00
C115   C     0.21090   0.57360   0.50000   0.00000  Uiso   1.00
C116   C     0.21100   0.54280   0.50000   0.00000  Uiso   1.00
C117   C     0.23940   0.54280   0.50000   0.00000  Uiso   1.00
C118   C     0.27030   0.57370   0.50000   0.00000  Uiso   1.00
C119   C     0.27030   0.60450   0.50000   0.00000  Uiso   1.00
C120   C     0.24180   0.60450   0.50000   0.00000  Uiso   1.00
O12    O     0.14380   0.54510   0.50000   0.00000  Uiso   1.00
H56    H     0.03202   0.44114   0.50000   0.00000  Uiso   1.00
H57    H     0.08582   0.49484   0.50000   0.00000  Uiso   1.00
H58    H     0.18767   0.51934   0.50000   0.00000  Uiso   1.00
H59    H     0.23742   0.51870   0.50000   0.00000  Uiso   1.00
H60    H     0.29270   0.62611   0.50000   0.00000  Uiso   1.00
C121   C     0.01650   0.50825   0.50000   0.00000  Uiso   1.00
C122   C     0.08760   0.54380   0.50000   0.00000  Uiso   1.00
B1     B     0.12130   0.56065   0.50000   0.00000  Uiso   1.00
C123   C     0.49175   0.50825   0.50000   0.00000  Uiso   1.00
C124   C     0.45620   0.54380   0.50000   0.00000  Uiso   1.00
B2     B     0.43935   0.56065   0.50000   0.00000  Uiso   1.00
C125   C     0.49175   0.98350   0.50000   0.00000  Uiso   1.00
C126   C     0.45620   0.91240   0.50000   0.00000  Uiso   1.00
B3     B     0.43935   0.87870   0.50000   0.00000  Uiso   1.00
C127   C     0.98350   0.49175   0.50000   0.00000  Uiso   1.00
C128   C     0.91240   0.45620   0.50000   0.00000  Uiso   1.00
B4     B     0.87870   0.43935   0.50000   0.00000  Uiso   1.00
C129   C     0.50825   0.49175   0.50000   0.00000  Uiso   1.00
C130   C     0.54380   0.45620   0.50000   0.00000  Uiso   1.00
B5     B     0.56065   0.43935   0.50000   0.00000  Uiso   1.00
C131   C     0.50825   0.01650   0.50000   0.00000  Uiso   1.00
C132   C     0.54380   0.08760   0.50000   0.00000  Uiso   1.00
B6     B     0.56065   0.12130   0.50000   0.00000  Uiso   1.00
loop_
_geom_bond_atom_site_label_1
_geom_bond_atom_site_label_2
_geom_bond_distance
_geom_bond_site_symmetry_2
_ccdc_geom_bond_type
C1     C2      1.424   .     S
C1     H1      1.083   .     S
C2     C3      1.428   .     S
C2     C121    1.519   .     S
C3     C122    1.432   .     S
C3     H2      1.087   .     S
C4     O1      1.535   .     S
C4     C5      1.420   .     S
C4     C114    1.538   .     S
C5     C10     1.432   .     S
C5     C6      1.429   .     S
C6     H3      1.084   .     S
C6     C7      1.316   .     S
C7     C8      1.432   .     S
C7     H4      1.073   .     S
C8     C9      1.427   .     S
C8     C98     1.534   .     S
C9     H5      1.020   .     S
C9     C10     1.320   .     S
C10    C120    1.520   .     S
O1     B1      1.535   .     S
C11    C12     1.424   .     S
C11    H6      1.083   .     S
C11    C71     1.509   .     S
C12    C13     1.428   .     S
C12    C123    1.519   .     S
C13    H7      1.087   .     S
C13    C124    1.432   .     S
C14    C15     1.420   .     S
C14    O2      1.535   .     S
C14    C104    1.538   .     S
C15    C16     1.429   .     S
C15    C20     1.432   .     S
C16    C17     1.316   .     S
C16    H8      1.084   .     S
C17    C18     1.432   .     S
C17    H9      1.073   .     S
C18    C118    1.534   .     S
C18    C19     1.427   .     S
C19    C20     1.320   .     S
C19    H10     1.020   .     S
C20    C110    1.520   .     S
O2     B2      1.535   .     S
C21    H11     1.083   .     S
C21    C22     1.424   .     S
C22    C23     1.428   .     S
C22    C125    1.519   .     S
C23    C126    1.432   .     S
C23    H12     1.087   .     S
C24    C94     1.538   .     S
C24    O3      1.535   .     S
C24    C25     1.420   .     S
C25    C30     1.432   .     S
C25    C26     1.429   .     S
C26    C27     1.316   .     S
C26    H13     1.084   .     S
C27    H14     1.073   .     S
C27    C28     1.432   .     S
C28    C29     1.427   .     S
C28    C108    1.534   .     S
C29    H15     1.020   .     S
C29    C30     1.320   .     S
C30    C100    1.520   .     S
O3     B3      1.535   .     S
C31    H16     1.083   .     S
C31    C32     1.424   .     S
C32    C127    1.519   .     S
C32    C33     1.428   .     S
C33    H17     1.087   .     S
C33    C128    1.432   .     S
C34    C35     1.420   .     S
C34    C84     1.538   .     S
C34    O4      1.535   .     S
C35    C40     1.432   .     S
C35    C36     1.429   .     S
C36    H18     1.084   .     S
C36    C37     1.316   .     S
C37    C38     1.432   .     S
C37    H19     1.073   .     S
C38    C68     1.534   .     S
C38    C39     1.427   .     S
C39    H20     1.020   .     S
C39    C40     1.320   .     S
C40    C90     1.520   .     S
O4     B4      1.535   .     S
C41    C101    1.509   .     S
C41    H21     1.083   .     S
C41    C42     1.424   .     S
C42    C129    1.519   .     S
C42    C43     1.428   .     S
C43    H22     1.087   .     S
C43    C130    1.432   .     S
C44    C45     1.420   .     S
C44    O5      1.535   .     S
C44    C74     1.538   .     S
C45    C46     1.429   .     S
C45    C50     1.432   .     S
C46    H23     1.084   .     S
C46    C47     1.316   .     S
C47    H24     1.073   .     S
C47    C48     1.432   .     S
C48    C88     1.534   .     S
C48    C49     1.427   .     S
C49    H25     1.020   .     S
C49    C50     1.320   .     S
C50    C80     1.520   .     S
O5     B5      1.535   .     S
C51    H26     1.083   .     S
C51    C52     1.424   .     S
C52    C131    1.519   .     S
C52    C53     1.428   .     S
C53    H27     1.087   .     S
C53    C132    1.432   .     S
C54    C55     1.420   .     S
C54    C64     1.538   .     S
C54    O6      1.535   .     S
C55    C56     1.429   .     S
C55    C60     1.432   .     S
C56    H28     1.084   .     S
C56    C57     1.316   .     S
C57    H29     1.073   .     S
C57    C58     1.432   .     S
C58    C78     1.534   .     S
C58    C59     1.427   .     S
C59    H30     1.020   .     S
C59    C60     1.320   .     S
C60    C70     1.520   .     S
O6     B6      1.535   .     S
C61    C62     1.424   .     S
C61    H31     1.083   .     S
C62    C131    1.519   .     S
C62    C63     1.428   .     S
C63    C132    1.432   .     S
C63    H32     1.087   .     S
C64    C65     1.420   .     S
C64    O7      1.535   .     S
C65    C66     1.429   .     S
C65    C70     1.432   .     S
C66    H33     1.084   .     S
C66    C67     1.316   .     S
C67    H34     1.073   .     S
C67    C68     1.432   .     S
C68    C69     1.427   .     S
C69    H35     1.020   .     S
C69    C70     1.320   .     S
O7     B6      1.535   .     S
C71    H36     1.083   .     S
C71    C72     1.424   .     S
C72    C129    1.519   .     S
C72    C73     1.428   .     S
C73    H37     1.087   .     S
C73    C130    1.432   .     S
C74    C75     1.420   .     S
C74    O8      1.535   .     S
C75    C80     1.432   .     S
C75    C76     1.429   .     S
C76    H38     1.084   .     S
C76    C77     1.316   .     S
C77    H39     1.073   .     S
C77    C78     1.432   .     S
C78    C79     1.427   .     S
C79    H40     1.020   .     S
C79    C80     1.320   .     S
O8     B5      1.535   .     S
C81    H41     1.083   .     S
C81    C82     1.424   .     S
C82    C83     1.428   .     S
C82    C127    1.519   .     S
C83    H42     1.087   .     S
C83    C128    1.432   .     S
C84    C85     1.420   .     S
C84    O9      1.535   .     S
C85    C86     1.429   .     S
C85    C90     1.432   .     S
C86    H43     1.084   .     S
C86    C87     1.316   .     S
C87    H44     1.073   .     S
C87    C88     1.432   .     S
C88    C89     1.427   .     S
C89    H45     1.020   .     S
C89    C90     1.320   .     S
O9     B4      1.535   .     S
C91    H46     1.083   .     S
C91    C92     1.424   .     S
C92    C93     1.428   .     S
C92    C125    1.519   .     S
C93    H47     1.087   .     S
C93    C126    1.432   .     S
C94    O10     1.535   .     S
C94    C95     1.420   .     S
C95    C100    1.432   .     S
C95    C96     1.429   .     S
C96    C97     1.316   .     S
C96    H48     1.084   .     S
C97    H49     1.073   .     S
C97    C98     1.432   .     S
C98    C99     1.427   .     S
C99    H50     1.020   .     S
C99    C100    1.320   .     S
O10    B3      1.535   .     S
C101   C102    1.424   .     S
C101   H51     1.083   .     S
C102   C103    1.428   .     S
C102   C123    1.519   .     S
C103   C124    1.432   .     S
C103   H52     1.087   .     S
C104   O11     1.535   .     S
C104   C105    1.420   .     S
C105   C110    1.432   .     S
C105   C106    1.429   .     S
C106   H53     1.084   .     S
C106   C107    1.316   .     S
C107   C108    1.432   .     S
C107   H54     1.073   .     S
C108   C109    1.427   .     S
C109   H55     1.020   .     S
C109   C110    1.320   .     S
O11    B2      1.535   .     S
C111   C112    1.424   .     S
C111   H56     1.083   .     S
C112   C121    1.519   .     S
C112   C113    1.428   .     S
C113   H57     1.087   .     S
C113   C122    1.432   .     S
C114   O12     1.535   .     S
C114   C115    1.420   .     S
C115   C116    1.429   .     S
C115   C120    1.432   .     S
C116   C117    1.316   .     S
C116   H58     1.084   .     S
C117   C118    1.432   .     S
C117   H59     1.073   .     S
C118   C119    1.427   .     S
C119   C120    1.320   .     S
C119   H60     1.020   .     S
O12    B1      1.535   .     S
C122   B1      1.352   .     S
C123   C129    1.324   .     S
C124   B2      1.352   .     S
C126   B3      1.352   .     S
C128   B4      1.352   .     S
C130   B5      1.352   .     S
C132   B6      1.352   .     S
