data_T-COF_3
_audit_creation_date              2016-12-13
_audit_creation_method            'Materials Studio'
_symmetry_space_group_name_H-M    'P1'
_symmetry_Int_Tables_number       1
_symmetry_cell_setting            triclinic
loop_
_symmetry_equiv_pos_as_xyz
  x,y,z
_cell_length_a                    18.8126
_cell_length_b                    18.8126
_cell_length_c                    3.4000
_cell_angle_alpha                 90.0000
_cell_angle_beta                  90.0000
_cell_angle_gamma                 120.0000
loop_
_atom_site_label
_atom_site_type_symbol
_atom_site_fract_x
_atom_site_fract_y
_atom_site_fract_z
_atom_site_U_iso_or_equiv
_atom_site_adp_type
_atom_site_occupancy
O1     O     0.54733   0.45635   1.47059   0.00000  Uiso   1.00
O2     O     0.40902   0.45267   1.47059   0.00000  Uiso   1.00
O3     O     0.54365   0.59098   1.47059   0.00000  Uiso   1.00
B1     B     0.58860   0.54609   1.47059   0.00000  Uiso   1.00
B2     B     0.45749   0.41140   1.47059   0.00000  Uiso   1.00
B3     B     0.45391   0.54251   1.47059   0.00000  Uiso   1.00
O4     O     0.11934   0.87699   1.47027   0.00000  Uiso   1.00
O5     O     0.25765   0.88066   1.47057   0.00000  Uiso   1.00
O6     O     0.12301   0.74235   1.47042   0.00000  Uiso   1.00
B4     B     0.07806   0.78724   1.47027   0.00000  Uiso   1.00
B5     B     0.20918   0.92193   1.47042   0.00000  Uiso   1.00
B6     B     0.21276   0.79082   1.47057   0.00000  Uiso   1.00
C1     C     0.98727   0.74013   1.47027   0.00000  Uiso   1.00
C2     C     0.67939   0.59320   1.47046   0.00000  Uiso   1.00
S1     S     0.92476   0.62890   1.47041   0.00000  Uiso   1.00
S2     S     0.74190   0.70443   1.47026   0.00000  Uiso   1.00
C3     C     0.82715   0.62380   1.47025   0.00000  Uiso   1.00
C4     C     0.83951   0.70953   1.47017   0.00000  Uiso   1.00
C5     C     0.93051   0.77859   1.47024   0.00000  Uiso   1.00
C6     C     0.73616   0.55474   1.47041   0.00000  Uiso   1.00
H1     H     0.95273   0.84716   1.47030   0.00000  Uiso   1.00
H2     H     0.71393   0.48616   1.47051   0.00000  Uiso   1.00
C7     C     0.25987   0.74715   1.47027   0.00000  Uiso   1.00
C8     C     0.40679   0.58619   1.47046   0.00000  Uiso   1.00
S3     S     0.37110   0.79586   1.47041   0.00000  Uiso   1.00
S4     S     0.29557   0.53747   1.47026   0.00000  Uiso   1.00
C9     C     0.37620   0.70335   1.47025   0.00000  Uiso   1.00
C10    C     0.29047   0.62998   1.47017   0.00000  Uiso   1.00
C11    C     0.22141   0.65192   1.47024   0.00000  Uiso   1.00
C12    C     0.44526   0.68142   1.47041   0.00000  Uiso   1.00
H3     H     0.15284   0.60557   1.47030   0.00000  Uiso   1.00
H4     H     0.51384   0.72777   1.47051   0.00000  Uiso   1.00
C13    C     0.25285   0.01273   1.47027   0.00000  Uiso   1.00
C14    C     0.41381   0.32061   1.47046   0.00000  Uiso   1.00
S5     S     0.20414   0.07524   1.47041   0.00000  Uiso   1.00
S6     S     0.46253   0.25809   1.47026   0.00000  Uiso   1.00
C15    C     0.29665   0.17285   1.47025   0.00000  Uiso   1.00
C16    C     0.37001   0.16049   1.47017   0.00000  Uiso   1.00
C17    C     0.34808   0.06949   1.47024   0.00000  Uiso   1.00
C18    C     0.31858   0.26384   1.47042   0.00000  Uiso   1.00
H5     H     0.39443   0.04727   1.47030   0.00000  Uiso   1.00
H6     H     0.27223   0.28607   1.47051   0.00000  Uiso   1.00
loop_
_geom_bond_atom_site_label_1
_geom_bond_atom_site_label_2
_geom_bond_distance
_geom_bond_site_symmetry_2
_ccdc_geom_bond_type
O1     B1      1.464   .     S
O1     B2      1.464   .     S
O2     B3      1.464   .     S
O2     B2      1.464   .     S
O3     B3      1.464   .     S
O3     B1      1.464   .     S
B1     C2      1.480   .     S
B2     C14     1.480   .     S
B3     C8      1.480   .     S
O4     B4      1.464   .     S
O4     B5      1.464   .     S
O5     B6      1.464   .     S
O5     B5      1.464   .     S
O6     B6      1.464   .     S
O6     B4      1.464   .     S
B6     C7      1.480   .     S
C1     C5      1.561   .     S
C1     S1      1.817   .     S
C2     S2      1.817   .     S
C2     C6      1.561   .     S
S1     C3      1.790   .     S
S2     C4      1.790   .     S
C3     C4      1.510   .     S
C3     C6      1.547   .     S
C4     C5      1.547   .     S
C5     H1      1.140   .     S
C6     H2      1.140   .     S
C7     S3      1.817   .     S
C7     C11     1.561   .     S
C8     S4      1.817   .     S
C8     C12     1.561   .     S
S3     C9      1.790   .     S
S4     C10     1.790   .     S
C9     C12     1.547   .     S
C9     C10     1.510   .     S
C10    C11     1.547   .     S
C11    H3      1.140   .     S
C12    H4      1.140   .     S
C13    S5      1.817   .     S
C13    C17     1.561   .     S
C14    C18     1.561   .     S
C14    S6      1.817   .     S
S5     C15     1.790   .     S
S6     C16     1.790   .     S
C15    C18     1.547   .     S
C15    C16     1.510   .     S
C16    C17     1.547   .     S
C17    H5      1.140   .     S
C18    H6      1.140   .     S
