data_T-COF_2
_audit_creation_date              2016-12-13
_audit_creation_method            'Materials Studio'
_symmetry_space_group_name_H-M    'P1'
_symmetry_Int_Tables_number       1
_symmetry_cell_setting            triclinic
loop_
_symmetry_equiv_pos_as_xyz
  x,y,z
_cell_length_a                    21.9372
_cell_length_b                    21.9372
_cell_length_c                    3.4000
_cell_angle_alpha                 90.0000
_cell_angle_beta                  90.0000
_cell_angle_gamma                 120.0000
loop_
_atom_site_label
_atom_site_type_symbol
_atom_site_fract_x
_atom_site_fract_y
_atom_site_fract_z
_atom_site_U_iso_or_equiv
_atom_site_adp_type
_atom_site_occupancy
O1     O     0.54910   0.47202   1.47059   0.00000  Uiso   1.00
O2     O     0.42291   0.45090   1.47059   0.00000  Uiso   1.00
O3     O     0.52798   0.57709   1.47059   0.00000  Uiso   1.00
B1     B     0.57507   0.54782   1.47059   0.00000  Uiso   1.00
B2     B     0.47275   0.42493   1.47059   0.00000  Uiso   1.00
B3     B     0.45218   0.52725   1.47059   0.00000  Uiso   1.00
O4     O     0.11756   0.86131   1.47281   0.00000  Uiso   1.00
O5     O     0.24375   0.88244   1.47268   0.00000  Uiso   1.00
O6     O     0.13869   0.75625   1.47251   0.00000  Uiso   1.00
B4     B     0.09160   0.78551   1.47265   0.00000  Uiso   1.00
B5     B     0.19391   0.90840   1.47282   0.00000  Uiso   1.00
B6     B     0.21449   0.80608   1.47253   0.00000  Uiso   1.00
C1     C     0.77033   0.71333   1.47115   0.00000  Uiso   1.00
C2     C     0.65200   0.59684   1.47089   0.00000  Uiso   1.00
S1     S     0.71851   0.57189   1.47130   0.00000  Uiso   1.00
C3     C     0.79484   0.65834   1.47137   0.00000  Uiso   1.00
C4     C     0.68859   0.67811   1.47098   0.00000  Uiso   1.00
C5     C     0.01466   0.73650   1.47236   0.00000  Uiso   1.00
S2     S     0.94816   0.76144   1.47209   0.00000  Uiso   1.00
C6     C     0.87183   0.67498   1.47187   0.00000  Uiso   1.00
C7     C     0.89635   0.62000   1.47188   0.00000  Uiso   1.00
C8     C     0.97809   0.65523   1.47198   0.00000  Uiso   1.00
H1     H     0.65909   0.70874   1.47088   0.00000  Uiso   1.00
H2     H     0.00759   0.62461   1.47182   0.00000  Uiso   1.00
H3     H     0.80772   0.77264   1.47114   0.00000  Uiso   1.00
H4     H     0.85895   0.56066   1.47175   0.00000  Uiso   1.00
C9     C     0.28666   0.55700   1.47115   0.00000  Uiso   1.00
C10    C     0.40316   0.55517   1.47089   0.00000  Uiso   1.00
S3     S     0.42811   0.64662   1.47130   0.00000  Uiso   1.00
C11    C     0.34165   0.63649   1.47137   0.00000  Uiso   1.00
C12    C     0.32189   0.51048   1.47098   0.00000  Uiso   1.00
C13    C     0.26350   0.77817   1.47236   0.00000  Uiso   1.00
S4     S     0.23856   0.68671   1.47209   0.00000  Uiso   1.00
C14    C     0.32502   0.69685   1.47187   0.00000  Uiso   1.00
C15    C     0.38000   0.77635   1.47188   0.00000  Uiso   1.00
C16    C     0.34477   0.82286   1.47199   0.00000  Uiso   1.00
H5     H     0.29125   0.45035   1.47088   0.00000  Uiso   1.00
H6     H     0.37539   0.88298   1.47182   0.00000  Uiso   1.00
H7     H     0.22736   0.53508   1.47114   0.00000  Uiso   1.00
H8     H     0.43934   0.79829   1.47175   0.00000  Uiso   1.00
C17    C     0.44300   0.22967   1.47115   0.00000  Uiso   1.00
C18    C     0.44483   0.34799   1.47089   0.00000  Uiso   1.00
S5     S     0.35338   0.28149   1.47130   0.00000  Uiso   1.00
C19    C     0.36351   0.20516   1.47137   0.00000  Uiso   1.00
C20    C     0.48952   0.31141   1.47098   0.00000  Uiso   1.00
C21    C     0.22183   0.98533   1.47237   0.00000  Uiso   1.00
S6     S     0.31329   0.05184   1.47209   0.00000  Uiso   1.00
C22    C     0.30315   0.12817   1.47187   0.00000  Uiso   1.00
C23    C     0.22365   0.10365   1.47188   0.00000  Uiso   1.00
C24    C     0.17713   0.02191   1.47199   0.00000  Uiso   1.00
H9     H     0.54965   0.34091   1.47088   0.00000  Uiso   1.00
H10    H     0.11702   0.99241   1.47182   0.00000  Uiso   1.00
H11    H     0.46492   0.19228   1.47114   0.00000  Uiso   1.00
H12    H     0.20171   0.14105   1.47176   0.00000  Uiso   1.00
loop_
_geom_bond_atom_site_label_1
_geom_bond_atom_site_label_2
_geom_bond_distance
_geom_bond_site_symmetry_2
_ccdc_geom_bond_type
O1     B2      1.464   .     S
O1     B1      1.464   .     S
O2     B2      1.464   .     S
O2     B3      1.464   .     S
O3     B1      1.464   .     S
O3     B3      1.464   .     S
B1     C2      1.480   .     S
B2     C18     1.480   .     S
B3     C10     1.480   .     S
O4     B4      1.464   .     S
O4     B5      1.464   .     S
O5     B5      1.464   .     S
O5     B6      1.464   .     S
O6     B4      1.464   .     S
O6     B6      1.464   .     S
B4     C5      1.480   .     S
B5     C21     1.480   .     S
B6     C13     1.480   .     S
C1     C4      1.558   .     S
C1     C3      1.547   .     S
C1     H3      1.139   .     S
C2     S1      1.796   .     S
C2     C4      1.547   .     S
S1     C3      1.796   .     S
C3     C6      1.539   .     S
C4     H1      1.143   .     S
S2     C6      1.796   .     S
C6     C7      1.547   .     S
C7     H4      1.140   .     S
C7     C8      1.558   .     S
C9     C12     1.558   .     S
C9     H7      1.139   .     S
C9     C11     1.547   .     S
C10    C12     1.547   .     S
C10    S3      1.796   .     S
S3     C11     1.796   .     S
C11    C14     1.539   .     S
C12    H5      1.143   .     S
C13    C16     1.547   .     S
C13    S4      1.796   .     S
S4     C14     1.796   .     S
C14    C15     1.547   .     S
C15    C16     1.558   .     S
C15    H8      1.140   .     S
C16    H6      1.142   .     S
C17    H11     1.139   .     S
C17    C19     1.547   .     S
C17    C20     1.558   .     S
C18    S5      1.796   .     S
C18    C20     1.547   .     S
S5     C19     1.796   .     S
C19    C22     1.539   .     S
C20    H9      1.143   .     S
S6     C22     1.796   .     S
C22    C23     1.547   .     S
C23    C24     1.558   .     S
C23    H12     1.140   .     S
