data_TAPB-PDA_COF
_audit_creation_date              2016-12-13
_audit_creation_method            'Materials Studio'
_symmetry_space_group_name_H-M    'P1'
_symmetry_Int_Tables_number       1
_symmetry_cell_setting            triclinic
loop_
_symmetry_equiv_pos_as_xyz
  x,y,z
_cell_length_a                    39.4509
_cell_length_b                    39.4508
_cell_length_c                    3.4000
_cell_angle_alpha                 90.0000
_cell_angle_beta                  90.0000
_cell_angle_gamma                 120.0001
loop_
_atom_site_label
_atom_site_type_symbol
_atom_site_fract_x
_atom_site_fract_y
_atom_site_fract_z
_atom_site_U_iso_or_equiv
_atom_site_adp_type
_atom_site_occupancy
C1     C     0.38248   0.44757   1.47712   0.00000  Uiso   1.00
N1     N     0.41400   0.43653   1.47771   0.00000  Uiso   1.00
C2     C     0.45656   0.46802   1.47474   0.00000  Uiso   1.00
C3     C     0.48853   0.45651   1.46930   0.00000  Uiso   1.00
C4     C     0.53200   0.48852   1.46413   0.00000  Uiso   1.00
H1     H     0.39085   0.47972   1.47583   0.00000  Uiso   1.00
H2     H     0.48003   0.42440   1.46880   0.00000  Uiso   1.00
H3     H     0.55573   0.48002   1.45945   0.00000  Uiso   1.00
C5     C     0.61754   0.55244   1.46453   0.00000  Uiso   1.00
N2     N     0.58600   0.56347   1.46477   0.00000  Uiso   1.00
C6     C     0.54343   0.53198   1.46615   0.00000  Uiso   1.00
C7     C     0.51146   0.54350   1.47130   0.00000  Uiso   1.00
C8     C     0.46799   0.51148   1.47613   0.00000  Uiso   1.00
H4     H     0.60920   0.52030   1.46392   0.00000  Uiso   1.00
H5     H     0.51996   0.57559   1.47225   0.00000  Uiso   1.00
H6     H     0.44426   0.51998   1.48082   0.00000  Uiso   1.00
C9     C     0.05248   0.43500   1.47616   0.00000  Uiso   1.00
N3     N     0.06353   0.47756   1.47780   0.00000  Uiso   1.00
C10    C     0.03204   0.48863   1.47451   0.00000  Uiso   1.00
C11    C     0.04355   0.53211   1.47015   0.00000  Uiso   1.00
C12    C     0.01154   0.54358   1.46468   0.00000  Uiso   1.00
H7     H     0.02034   0.41121   1.47384   0.00000  Uiso   1.00
H8     H     0.07565   0.55571   1.47068   0.00000  Uiso   1.00
H9     H     0.02005   0.57580   1.46079   0.00000  Uiso   1.00
C13    C     0.94762   0.56519   1.46442   0.00000  Uiso   1.00
N4     N     0.93660   0.52263   1.46361   0.00000  Uiso   1.00
C14    C     0.96808   0.51155   1.46531   0.00000  Uiso   1.00
C15    C     0.95656   0.46805   1.46937   0.00000  Uiso   1.00
C16    C     0.98858   0.45660   1.47451   0.00000  Uiso   1.00
H10    H     0.97977   0.58900   1.46484   0.00000  Uiso   1.00
H11    H     0.92447   0.44446   1.46930   0.00000  Uiso   1.00
H12    H     0.98008   0.42437   1.47841   0.00000  Uiso   1.00
C17    C     0.06506   0.11757   1.48925   0.00000  Uiso   1.00
N5     N     0.02249   0.08605   1.48953   0.00000  Uiso   1.00
C18    C     0.01143   0.04350   1.48519   0.00000  Uiso   1.00
C19    C     0.96795   0.01153   1.47944   0.00000  Uiso   1.00
C20    C     0.95649   0.96806   1.47289   0.00000  Uiso   1.00
H13    H     0.08884   0.10921   1.48717   0.00000  Uiso   1.00
H14    H     0.94435   0.02003   1.47974   0.00000  Uiso   1.00
H15    H     0.92426   0.94434   1.46797   0.00000  Uiso   1.00
C21    C     0.93487   0.88252   1.47053   0.00000  Uiso   1.00
N6     N     0.97744   0.91406   1.47109   0.00000  Uiso   1.00
C22    C     0.98852   0.95663   1.47383   0.00000  Uiso   1.00
C23    C     0.03201   0.98860   1.47929   0.00000  Uiso   1.00
C24    C     0.04346   0.03207   1.48551   0.00000  Uiso   1.00
H16    H     0.91106   0.89086   1.47071   0.00000  Uiso   1.00
H17    H     0.05560   0.98010   1.47944   0.00000  Uiso   1.00
H18    H     0.07569   0.05579   1.49043   0.00000  Uiso   1.00
C25    C     0.68344   0.61971   1.46575   0.00000  Uiso   1.00
C26    C     0.72407   0.64159   1.46613   0.00000  Uiso   1.00
H19    H     0.66681   0.63476   1.46606   0.00000  Uiso   1.00
H20    H     0.73818   0.67320   1.46672   0.00000  Uiso   1.00
C27    C     0.88035   0.56382   1.46447   0.00000  Uiso   1.00
C28    C     0.85847   0.58257   1.46485   0.00000  Uiso   1.00
H21    H     0.86530   0.53214   1.46387   0.00000  Uiso   1.00
H22    H     0.82686   0.56507   1.46455   0.00000  Uiso   1.00
C29    C     0.93624   0.81662   1.46926   0.00000  Uiso   1.00
C30    C     0.91749   0.77600   1.46850   0.00000  Uiso   1.00
H23    H     0.96792   0.83325   1.46955   0.00000  Uiso   1.00
H24    H     0.93499   0.76189   1.46821   0.00000  Uiso   1.00
C31    C     0.87029   0.81408   1.46928   0.00000  Uiso   1.00
C32    C     0.85080   0.77342   1.46852   0.00000  Uiso   1.00
H25    H     0.85338   0.82882   1.46958   0.00000  Uiso   1.00
H26    H     0.81913   0.75741   1.46825   0.00000  Uiso   1.00
C33    C     0.94375   0.62977   1.46566   0.00000  Uiso   1.00
C34    C     0.92259   0.64926   1.46606   0.00000  Uiso   1.00
H27    H     0.97542   0.64669   1.46595   0.00000  Uiso   1.00
H28    H     0.93825   0.68093   1.46665   0.00000  Uiso   1.00
C35    C     0.68599   0.55631   1.46453   0.00000  Uiso   1.00
C36    C     0.72664   0.57748   1.46489   0.00000  Uiso   1.00
H29    H     0.67124   0.52464   1.46394   0.00000  Uiso   1.00
H30    H     0.74265   0.56182   1.46457   0.00000  Uiso   1.00
C37    C     0.85271   0.70789   1.46726   0.00000  Uiso   1.00
C38    C     0.91342   0.83693   1.46967   0.00000  Uiso   1.00
C39    C     0.87347   0.75200   1.46809   0.00000  Uiso   1.00
C40    C     0.79217   0.64491   1.46612   0.00000  Uiso   1.00
C41    C     0.66313   0.57658   1.46494   0.00000  Uiso   1.00
C42    C     0.74806   0.62156   1.46572   0.00000  Uiso   1.00
C43    C     0.85515   0.64735   1.46610   0.00000  Uiso   1.00
C44    C     0.92348   0.58664   1.46486   0.00000  Uiso   1.00
C45    C     0.87850   0.62660   1.46567   0.00000  Uiso   1.00
C46    C     0.87406   0.68828   1.46686   0.00000  Uiso   1.00
C47    C     0.81178   0.68588   1.46688   0.00000  Uiso   1.00
C48    C     0.81419   0.62600   1.46573   0.00000  Uiso   1.00
H31    H     0.79476   0.70050   1.46718   0.00000  Uiso   1.00
H32    H     0.79957   0.59436   1.46514   0.00000  Uiso   1.00
H33    H     0.90570   0.70530   1.46716   0.00000  Uiso   1.00
C49    C     0.31656   0.38032   1.47958   0.00000  Uiso   1.00
C50    C     0.27594   0.35846   1.48030   0.00000  Uiso   1.00
H34    H     0.33318   0.36525   1.48028   0.00000  Uiso   1.00
H35    H     0.26181   0.32685   1.48153   0.00000  Uiso   1.00
C51    C     0.11974   0.43634   1.47640   0.00000  Uiso   1.00
C52    C     0.14160   0.41757   1.47727   0.00000  Uiso   1.00
H36    H     0.13480   0.46801   1.47517   0.00000  Uiso   1.00
H37    H     0.17321   0.43505   1.47669   0.00000  Uiso   1.00
C53    C     0.06372   0.18349   1.48654   0.00000  Uiso   1.00
C54    C     0.08249   0.22412   1.48495   0.00000  Uiso   1.00
H38    H     0.03205   0.16688   1.48708   0.00000  Uiso   1.00
H39    H     0.06500   0.23824   1.48429   0.00000  Uiso   1.00
C55    C     0.12966   0.18601   1.48673   0.00000  Uiso   1.00
C56    C     0.14916   0.22666   1.48515   0.00000  Uiso   1.00
H40    H     0.14656   0.17124   1.48741   0.00000  Uiso   1.00
H41    H     0.18083   0.24266   1.48463   0.00000  Uiso   1.00
C57    C     0.05632   0.37040   1.47883   0.00000  Uiso   1.00
C58    C     0.07747   0.35090   1.47972   0.00000  Uiso   1.00
H42    H     0.02465   0.35350   1.47938   0.00000  Uiso   1.00
H43    H     0.06179   0.31923   1.48095   0.00000  Uiso   1.00
C59    C     0.31405   0.44374   1.47697   0.00000  Uiso   1.00
C60    C     0.27340   0.42259   1.47765   0.00000  Uiso   1.00
H44    H     0.32881   0.47540   1.47573   0.00000  Uiso   1.00
H45    H     0.25740   0.43826   1.47694   0.00000  Uiso   1.00
C61    C     0.14729   0.29221   1.48244   0.00000  Uiso   1.00
C62    C     0.08653   0.16316   1.48747   0.00000  Uiso   1.00
C63    C     0.12652   0.24810   1.48416   0.00000  Uiso   1.00
C64    C     0.20785   0.35517   1.48013   0.00000  Uiso   1.00
C65    C     0.33689   0.42345   1.47790   0.00000  Uiso   1.00
C66    C     0.25196   0.37851   1.47937   0.00000  Uiso   1.00
C67    C     0.14489   0.35277   1.47995   0.00000  Uiso   1.00
C68    C     0.07661   0.41353   1.47715   0.00000  Uiso   1.00
C69    C     0.12155   0.37354   1.47899   0.00000  Uiso   1.00
C70    C     0.12595   0.31184   1.48154   0.00000  Uiso   1.00
C71    C     0.18822   0.31421   1.48172   0.00000  Uiso   1.00
C72    C     0.18585   0.37410   1.47925   0.00000  Uiso   1.00
H46    H     0.20523   0.29957   1.48240   0.00000  Uiso   1.00
H47    H     0.20048   0.40574   1.47802   0.00000  Uiso   1.00
H48    H     0.09431   0.29483   1.48210   0.00000  Uiso   1.00
loop_
_geom_bond_atom_site_label_1
_geom_bond_atom_site_label_2
_geom_bond_distance
_geom_bond_site_symmetry_2
_ccdc_geom_bond_type
C1     C65     1.558   .     S
C1     N1      1.509   .     S
C1     H1      1.140   .     S
N1     C2      1.509   .     S
C2     C8      1.540   .     S
C2     C3      1.539   .     S
C3     H2      1.136   .     S
C3     C4      1.540   .     S
C4     H3      1.141   .     S
C4     C6      1.539   .     S
C5     H4      1.140   .     S
C5     N2      1.510   .     S
C5     C41     1.558   .     S
N2     C6      1.509   .     S
C6     C7      1.540   .     S
C7     H5      1.136   .     S
C7     C8      1.540   .     S
C8     H6      1.141   .     S
C9     N3      1.509   .     S
C9     H7      1.140   .     S
C9     C68     1.558   .     S
N3     C10     1.509   .     S
C10    C11     1.539   .     S
C11    H8      1.136   .     S
C11    C12     1.540   .     S
C12    H9      1.141   .     S
C13    N4      1.510   .     S
C13    C44     1.558   .     S
C13    H10     1.140   .     S
N4     C14     1.509   .     S
C14    C15     1.540   .     S
C15    C16     1.540   .     S
C15    H11     1.136   .     S
C16    H12     1.141   .     S
C17    H13     1.140   .     S
C17    C62     1.558   .     S
C17    N5      1.509   .     S
N5     C18     1.509   .     S
C18    C24     1.540   .     S
C19    H14     1.136   .     S
C20    H15     1.141   .     S
C20    C22     1.539   .     S
C21    H16     1.140   .     S
C21    N6      1.510   .     S
C21    C38     1.558   .     S
N6     C22     1.509   .     S
C23    H17     1.136   .     S
C24    H18     1.141   .     S
C25    C41     1.474   .     S
C25    C26     1.389   .     S
C25    H19     1.083   .     S
C26    H20     1.082   .     S
C26    C42     1.506   .     S
C27    H21     1.083   .     S
C27    C28     1.389   .     S
C27    C44     1.474   .     S
C28    C45     1.506   .     S
C28    H22     1.082   .     S
C29    C38     1.474   .     S
C29    H23     1.083   .     S
C29    C30     1.389   .     S
C30    C39     1.506   .     S
C30    H24     1.082   .     S
C31    H25     1.083   .     S
C31    C38     1.474   .     S
C31    C32     1.389   .     S
C32    H26     1.082   .     S
C32    C39     1.506   .     S
C33    H27     1.083   .     S
C33    C34     1.389   .     S
C33    C44     1.474   .     S
C34    C45     1.506   .     S
C34    H28     1.082   .     S
C35    H29     1.083   .     S
C35    C36     1.389   .     S
C35    C41     1.474   .     S
C36    C42     1.506   .     S
C36    H30     1.082   .     S
C37    C46     1.400   .     S
C37    C47     1.400   .     S
C37    C39     1.508   .     S
C40    C48     1.400   .     S
C40    C47     1.400   .     S
C40    C42     1.508   .     S
C43    C48     1.400   .     S
C43    C45     1.508   .     S
C43    C46     1.400   .     S
C46    H33     1.082   .     S
C47    H31     1.082   .     S
C48    H32     1.082   .     S
C49    H34     1.083   .     S
C49    C65     1.474   .     S
C49    C50     1.389   .     S
C50    H35     1.082   .     S
C50    C66     1.506   .     S
C51    C52     1.389   .     S
C51    H36     1.083   .     S
C51    C68     1.474   .     S
C52    H37     1.082   .     S
C52    C69     1.506   .     S
C53    H38     1.083   .     S
C53    C62     1.474   .     S
C53    C54     1.389   .     S
C54    H39     1.082   .     S
C54    C63     1.506   .     S
C55    C62     1.474   .     S
C55    H40     1.083   .     S
C55    C56     1.389   .     S
C56    C63     1.506   .     S
C56    H41     1.082   .     S
C57    C68     1.474   .     S
C57    C58     1.389   .     S
C57    H42     1.083   .     S
C58    H43     1.082   .     S
C58    C69     1.506   .     S
C59    C65     1.474   .     S
C59    C60     1.389   .     S
C59    H44     1.083   .     S
C60    H45     1.082   .     S
C60    C66     1.506   .     S
C61    C71     1.400   .     S
C61    C70     1.400   .     S
C61    C63     1.508   .     S
C64    C71     1.400   .     S
C64    C72     1.400   .     S
C64    C66     1.508   .     S
C67    C70     1.400   .     S
C67    C72     1.400   .     S
C67    C69     1.508   .     S
C70    H48     1.082   .     S
C71    H46     1.082   .     S
C72    H47     1.082   .     S
