data_TBPB_COF
_audit_creation_date              2016-12-13
_audit_creation_method            'Materials Studio'
_symmetry_space_group_name_H-M    'P1'
_symmetry_Int_Tables_number       1
_symmetry_cell_setting            triclinic
loop_
_symmetry_equiv_pos_as_xyz
  x,y,z
_cell_length_a                    22.7820
_cell_length_b                    22.7820
_cell_length_c                    3.4000
_cell_angle_alpha                 90.0000
_cell_angle_beta                  90.0000
_cell_angle_gamma                 120.0000
loop_
_atom_site_label
_atom_site_type_symbol
_atom_site_fract_x
_atom_site_fract_y
_atom_site_fract_z
_atom_site_U_iso_or_equiv
_atom_site_adp_type
_atom_site_occupancy
C1     C     0.57091   0.53545   1.47059   0.00000  Uiso   1.00
C2     C     0.53545   0.46454   1.47059   0.00000  Uiso   1.00
C3     C     0.46454   0.42909   1.47059   0.00000  Uiso   1.00
C4     C     0.42909   0.46454   1.47059   0.00000  Uiso   1.00
C5     C     0.46454   0.53545   1.47059   0.00000  Uiso   1.00
C6     C     0.53545   0.57091   1.47059   0.00000  Uiso   1.00
H1     H     0.56288   0.43712   1.47059   0.00000  Uiso   1.00
H2     H     0.37423   0.43712   1.47059   0.00000  Uiso   1.00
H3     H     0.56288   0.62577   1.47059   0.00000  Uiso   1.00
C7     C     0.09576   0.79788   1.47059   0.00000  Uiso   1.00
C8     C     0.13121   0.76242   1.47059   0.00000  Uiso   1.00
C9     C     0.20212   0.79788   1.47059   0.00000  Uiso   1.00
C10    C     0.23758   0.86879   1.47059   0.00000  Uiso   1.00
C11    C     0.20212   0.90424   1.47059   0.00000  Uiso   1.00
C12    C     0.13121   0.86879   1.47059   0.00000  Uiso   1.00
H4     H     0.10378   0.70756   1.47059   0.00000  Uiso   1.00
H5     H     0.29243   0.89622   1.47059   0.00000  Uiso   1.00
H6     H     0.10378   0.89622   1.47059   0.00000  Uiso   1.00
C13    C     0.01567   0.75783   1.47059   0.00000  Uiso   1.00
C14    C     0.97950   0.68658   1.47059   0.00000  Uiso   1.00
C15    C     0.90852   0.75743   1.47059   0.00000  Uiso   1.00
H7     H     0.00630   0.65840   1.47059   0.00000  Uiso   1.00
C16    C     0.97950   0.79292   1.47059   0.00000  Uiso   1.00
C17    C     0.90852   0.65109   1.47059   0.00000  Uiso   1.00
H8     H     0.00630   0.84790   1.47059   0.00000  Uiso   1.00
C18    C     0.87236   0.68618   1.47059   0.00000  Uiso   1.00
C19    C     0.79431   0.64715   1.47059   0.00000  Uiso   1.00
C20    C     0.75814   0.57590   1.47059   0.00000  Uiso   1.00
C21    C     0.68717   0.64676   1.47059   0.00000  Uiso   1.00
H9     H     0.78494   0.54772   1.47059   0.00000  Uiso   1.00
C22    C     0.75814   0.68224   1.47059   0.00000  Uiso   1.00
C23    C     0.68717   0.54041   1.47059   0.00000  Uiso   1.00
H10    H     0.78494   0.73722   1.47059   0.00000  Uiso   1.00
C24    C     0.65100   0.57550   1.47059   0.00000  Uiso   1.00
H11    H     0.66037   0.48543   1.47059   0.00000  Uiso   1.00
H12    H     0.88172   0.59611   1.47059   0.00000  Uiso   1.00
H13    H     0.66037   0.67493   1.47059   0.00000  Uiso   1.00
H14    H     0.88172   0.78561   1.47059   0.00000  Uiso   1.00
C25    C     0.24217   0.75783   1.47059   0.00000  Uiso   1.00
C26    C     0.20708   0.68658   1.47059   0.00000  Uiso   1.00
C27    C     0.34891   0.75743   1.47059   0.00000  Uiso   1.00
H15    H     0.15210   0.65840   1.47059   0.00000  Uiso   1.00
C28    C     0.31342   0.79292   1.47059   0.00000  Uiso   1.00
C29    C     0.24256   0.65109   1.47059   0.00000  Uiso   1.00
H16    H     0.34160   0.84790   1.47059   0.00000  Uiso   1.00
C30    C     0.31382   0.68618   1.47059   0.00000  Uiso   1.00
C31    C     0.35284   0.64715   1.47059   0.00000  Uiso   1.00
C32    C     0.31775   0.57590   1.47059   0.00000  Uiso   1.00
C33    C     0.45959   0.64676   1.47059   0.00000  Uiso   1.00
H17    H     0.26278   0.54772   1.47059   0.00000  Uiso   1.00
C34    C     0.42410   0.68224   1.47059   0.00000  Uiso   1.00
C35    C     0.35324   0.54041   1.47059   0.00000  Uiso   1.00
H18    H     0.45228   0.73722   1.47059   0.00000  Uiso   1.00
C36    C     0.42450   0.57550   1.47059   0.00000  Uiso   1.00
H19    H     0.32506   0.48543   1.47059   0.00000  Uiso   1.00
H20    H     0.21439   0.59611   1.47059   0.00000  Uiso   1.00
H21    H     0.51457   0.67493   1.47059   0.00000  Uiso   1.00
H22    H     0.40389   0.78561   1.47059   0.00000  Uiso   1.00
C37    C     0.24217   0.98433   1.47058   0.00000  Uiso   1.00
C38    C     0.31342   0.02050   1.47058   0.00000  Uiso   1.00
C39    C     0.24256   0.09148   1.47059   0.00000  Uiso   1.00
H23    H     0.34160   0.99370   1.47058   0.00000  Uiso   1.00
C40    C     0.20708   0.02050   1.47058   0.00000  Uiso   1.00
C41    C     0.34891   0.09148   1.47059   0.00000  Uiso   1.00
H24    H     0.15210   0.99370   1.47058   0.00000  Uiso   1.00
C42    C     0.31382   0.12764   1.47059   0.00000  Uiso   1.00
C43    C     0.35284   0.20569   1.47059   0.00000  Uiso   1.00
C44    C     0.42410   0.24186   1.47059   0.00000  Uiso   1.00
C45    C     0.35324   0.31283   1.47059   0.00000  Uiso   1.00
H25    H     0.45228   0.21506   1.47059   0.00000  Uiso   1.00
C46    C     0.31775   0.24186   1.47059   0.00000  Uiso   1.00
C47    C     0.45959   0.31283   1.47059   0.00000  Uiso   1.00
H26    H     0.26278   0.21506   1.47059   0.00000  Uiso   1.00
C48    C     0.42450   0.34900   1.47059   0.00000  Uiso   1.00
H27    H     0.51457   0.33963   1.47059   0.00000  Uiso   1.00
H28    H     0.40389   0.11827   1.47059   0.00000  Uiso   1.00
H29    H     0.32506   0.33963   1.47059   0.00000  Uiso   1.00
H30    H     0.21439   0.11827   1.47059   0.00000  Uiso   1.00
loop_
_geom_bond_atom_site_label_1
_geom_bond_atom_site_label_2
_geom_bond_distance
_geom_bond_site_symmetry_2
_ccdc_geom_bond_type
C1     C2      1.399   .     S
C1     C6      1.399   .     S
C1     C24     1.580   .     S
C2     C3      1.399   .     S
C2     H1      1.082   .     S
C3     C4      1.399   .     S
C3     C48     1.580   .     S
C4     C5      1.399   .     S
C4     H2      1.082   .     S
C5     C36     1.580   .     S
C5     C6      1.399   .     S
C6     H3      1.082   .     S
C7     C8      1.399   .     S
C7     C13     1.580   .     S
C7     C12     1.399   .     S
C8     C9      1.399   .     S
C8     H4      1.082   .     S
C9     C25     1.580   .     S
C9     C10     1.399   .     S
C10    H5      1.082   .     S
C10    C11     1.399   .     S
C11    C37     1.580   .     S
C11    C12     1.399   .     S
C12    H6      1.082   .     S
C14    C17     1.400   .     S
C15    H14     1.085   .     S
C15    C16     1.400   .     S
C15    C18     1.406   .     S
C17    C18     1.406   .     S
C17    H12     1.085   .     S
C18    C19     1.540   .     S
C19    C22     1.406   .     S
C19    C20     1.406   .     S
C20    H9      1.085   .     S
C20    C23     1.400   .     S
C21    H13     1.085   .     S
C21    C22     1.400   .     S
C21    C24     1.406   .     S
C22    H10     1.085   .     S
C23    C24     1.406   .     S
C23    H11     1.085   .     S
C25    C28     1.406   .     S
C25    C26     1.406   .     S
C26    C29     1.400   .     S
C26    H15     1.085   .     S
C27    C28     1.400   .     S
C27    H22     1.085   .     S
C27    C30     1.406   .     S
C28    H16     1.085   .     S
C29    C30     1.406   .     S
C29    H20     1.085   .     S
C30    C31     1.540   .     S
C31    C34     1.406   .     S
C31    C32     1.406   .     S
C32    H17     1.085   .     S
C32    C35     1.400   .     S
C33    C34     1.400   .     S
C33    H21     1.085   .     S
C33    C36     1.406   .     S
C34    H18     1.085   .     S
C35    C36     1.406   .     S
C35    H19     1.085   .     S
C38    C41     1.400   .     S
C39    H30     1.085   .     S
C39    C42     1.406   .     S
C39    C40     1.400   .     S
C41    C42     1.406   .     S
C41    H28     1.085   .     S
C42    C43     1.540   .     S
C43    C44     1.406   .     S
C43    C46     1.406   .     S
C44    H25     1.085   .     S
C44    C47     1.400   .     S
C45    H29     1.085   .     S
C45    C48     1.406   .     S
C45    C46     1.400   .     S
C46    H26     1.085   .     S
C47    C48     1.406   .     S
C47    H27     1.085   .     S
