data_TD-COF-5
_audit_creation_date              2016-12-13
_audit_creation_method            'Materials Studio'
_symmetry_space_group_name_H-M    'P1'
_symmetry_Int_Tables_number       1
_symmetry_cell_setting            triclinic
loop_
_symmetry_equiv_pos_as_xyz
  x,y,z
_cell_length_a                    31.3283
_cell_length_b                    31.3283
_cell_length_c                    7.5183
_cell_angle_alpha                 90.0000
_cell_angle_beta                  90.0000
_cell_angle_gamma                 120.0000
loop_
_atom_site_label
_atom_site_type_symbol
_atom_site_fract_x
_atom_site_fract_y
_atom_site_fract_z
_atom_site_U_iso_or_equiv
_atom_site_adp_type
_atom_site_occupancy
B1     B     0.55645   0.44355   0.00000   0.00000  Uiso   1.00
C1     C     0.52707   0.47293   0.00000   0.00000  Uiso   1.00
B2     B     0.55645   0.11290   0.00000   0.00000  Uiso   1.00
C2     C     0.52707   0.05414   0.00000   0.00000  Uiso   1.00
B3     B     0.88710   0.44355   0.00000   0.00000  Uiso   1.00
C3     C     0.94586   0.47293   0.00000   0.00000  Uiso   1.00
B4     B     0.44355   0.55645   0.00000   0.00000  Uiso   1.00
C4     C     0.47293   0.52707   0.00000   0.00000  Uiso   1.00
B5     B     0.44355   0.88710   0.00000   0.00000  Uiso   1.00
C5     C     0.47293   0.94586   0.00000   0.00000  Uiso   1.00
B6     B     0.11290   0.55645   0.00000   0.00000  Uiso   1.00
C6     C     0.05414   0.52707   0.00000   0.00000  Uiso   1.00
C7     C     0.28043   0.64021   0.09377   0.00000  Uiso   1.00
C8     C     0.19191   0.59596  -0.09267   0.00000  Uiso   1.00
H1     H     0.23543   0.61771  -0.33513   0.00000  Uiso   1.00
O1     O     0.14335   0.57168  -0.15305   0.00000  Uiso   1.00
C9     C     0.35979   0.64021   0.09377   0.00000  Uiso   1.00
C10    C     0.40404   0.59596  -0.09267   0.00000  Uiso   1.00
H2     H     0.38229   0.61771  -0.33513   0.00000  Uiso   1.00
O2     O     0.42832   0.57168  -0.15305   0.00000  Uiso   1.00
C11    C     0.35979   0.71957   0.09377   0.00000  Uiso   1.00
C12    C     0.40404   0.80809  -0.09267   0.00000  Uiso   1.00
H3     H     0.38229   0.76457  -0.33513   0.00000  Uiso   1.00
O3     O     0.42832   0.85665  -0.15305   0.00000  Uiso   1.00
C13    C     0.71957   0.35979   0.09377   0.00000  Uiso   1.00
C14    C     0.80809   0.40404  -0.09267   0.00000  Uiso   1.00
H4     H     0.76457   0.38229  -0.33513   0.00000  Uiso   1.00
O4     O     0.85665   0.42832  -0.15305   0.00000  Uiso   1.00
C15    C     0.64021   0.35979   0.09377   0.00000  Uiso   1.00
C16    C     0.59596   0.40404  -0.09267   0.00000  Uiso   1.00
H5     H     0.61771   0.38229  -0.33513   0.00000  Uiso   1.00
O5     O     0.57168   0.42832  -0.15305   0.00000  Uiso   1.00
C17    C     0.64021   0.28043   0.09377   0.00000  Uiso   1.00
C18    C     0.59596   0.19191  -0.09267   0.00000  Uiso   1.00
H6     H     0.61771   0.23543  -0.33513   0.00000  Uiso   1.00
O6     O     0.57168   0.14335  -0.15305   0.00000  Uiso   1.00
C19    C     0.64021   0.28043  -0.09377   0.00000  Uiso   1.00
C20    C     0.59596   0.19191   0.09267   0.00000  Uiso   1.00
H7     H     0.61771   0.23543   0.33513   0.00000  Uiso   1.00
O7     O     0.57168   0.14335   0.15305   0.00000  Uiso   1.00
C21    C     0.64021   0.35979  -0.09377   0.00000  Uiso   1.00
C22    C     0.59596   0.40404   0.09267   0.00000  Uiso   1.00
H8     H     0.61771   0.38229   0.33513   0.00000  Uiso   1.00
O8     O     0.57168   0.42832   0.15305   0.00000  Uiso   1.00
C23    C     0.71957   0.35979  -0.09377   0.00000  Uiso   1.00
C24    C     0.80809   0.40404   0.09267   0.00000  Uiso   1.00
H9     H     0.76457   0.38229   0.33513   0.00000  Uiso   1.00
O9     O     0.85665   0.42832   0.15305   0.00000  Uiso   1.00
C25    C     0.35979   0.71957  -0.09377   0.00000  Uiso   1.00
C26    C     0.40404   0.80809   0.09267   0.00000  Uiso   1.00
H10    H     0.38229   0.76457   0.33513   0.00000  Uiso   1.00
O10    O     0.42832   0.85665   0.15305   0.00000  Uiso   1.00
C27    C     0.35979   0.64021  -0.09377   0.00000  Uiso   1.00
C28    C     0.40404   0.59596   0.09267   0.00000  Uiso   1.00
H11    H     0.38229   0.61771   0.33513   0.00000  Uiso   1.00
O11    O     0.42832   0.57168   0.15305   0.00000  Uiso   1.00
C29    C     0.28043   0.64021  -0.09377   0.00000  Uiso   1.00
C30    C     0.19191   0.59596   0.09267   0.00000  Uiso   1.00
H12    H     0.23543   0.61771   0.33513   0.00000  Uiso   1.00
O12    O     0.14335   0.57168   0.15305   0.00000  Uiso   1.00
C31    C     0.33333   0.66667   0.17123   0.00000  Uiso   1.00
H13    H     0.33333   0.66667  -0.31739   0.00000  Uiso   1.00
C32    C     0.66667   0.33333   0.17123   0.00000  Uiso   1.00
H14    H     0.66667   0.33333  -0.31739   0.00000  Uiso   1.00
C33    C     0.66667   0.33333  -0.17123   0.00000  Uiso   1.00
H15    H     0.66667   0.33333   0.31739   0.00000  Uiso   1.00
C34    C     0.33333   0.66667  -0.17123   0.00000  Uiso   1.00
H16    H     0.33333   0.66667   0.31739   0.00000  Uiso   1.00
C35    C     0.48706   0.51294   0.15860   0.00000  Uiso   1.00
H17    H     0.47757   0.52243   0.28681   0.00000  Uiso   1.00
C36    C     0.38202   0.61798   0.18994   0.00000  Uiso   1.00
C37    C     0.48706   0.97412   0.15860   0.00000  Uiso   1.00
H18    H     0.47757   0.95514   0.28681   0.00000  Uiso   1.00
C38    C     0.38202   0.76403   0.18994   0.00000  Uiso   1.00
C39    C     0.02588   0.51294   0.15860   0.00000  Uiso   1.00
H19    H     0.04486   0.52243   0.28681   0.00000  Uiso   1.00
C40    C     0.23597   0.61798   0.18994   0.00000  Uiso   1.00
C41    C     0.51294   0.48706   0.15860   0.00000  Uiso   1.00
H20    H     0.52243   0.47757   0.28681   0.00000  Uiso   1.00
C42    C     0.61798   0.38202   0.18994   0.00000  Uiso   1.00
C43    C     0.51294   0.02588   0.15860   0.00000  Uiso   1.00
H21    H     0.52243   0.04486   0.28681   0.00000  Uiso   1.00
C44    C     0.61798   0.23597   0.18994   0.00000  Uiso   1.00
C45    C     0.97412   0.48706   0.15860   0.00000  Uiso   1.00
H22    H     0.95514   0.47757   0.28681   0.00000  Uiso   1.00
C46    C     0.76404   0.38202   0.18994   0.00000  Uiso   1.00
C47    C     0.51294   0.48706  -0.15860   0.00000  Uiso   1.00
H23    H     0.52243   0.47757  -0.28681   0.00000  Uiso   1.00
C48    C     0.61798   0.38202  -0.18994   0.00000  Uiso   1.00
C49    C     0.97412   0.48706  -0.15860   0.00000  Uiso   1.00
H24    H     0.95514   0.47757  -0.28681   0.00000  Uiso   1.00
C50    C     0.76404   0.38202  -0.18994   0.00000  Uiso   1.00
C51    C     0.51294   0.02588  -0.15860   0.00000  Uiso   1.00
H25    H     0.52243   0.04486  -0.28681   0.00000  Uiso   1.00
C52    C     0.61798   0.23597  -0.18994   0.00000  Uiso   1.00
C53    C     0.48706   0.51294  -0.15860   0.00000  Uiso   1.00
H26    H     0.47757   0.52243  -0.28681   0.00000  Uiso   1.00
C54    C     0.38202   0.61798  -0.18994   0.00000  Uiso   1.00
C55    C     0.02588   0.51294  -0.15860   0.00000  Uiso   1.00
H27    H     0.04486   0.52243  -0.28681   0.00000  Uiso   1.00
C56    C     0.23597   0.61798  -0.18994   0.00000  Uiso   1.00
C57    C     0.48706   0.97412  -0.15860   0.00000  Uiso   1.00
H28    H     0.47757   0.95514  -0.28681   0.00000  Uiso   1.00
C58    C     0.38202   0.76403  -0.18994   0.00000  Uiso   1.00
loop_
_geom_bond_atom_site_label_1
_geom_bond_atom_site_label_2
_geom_bond_distance
_geom_bond_site_symmetry_2
_ccdc_geom_bond_type
B1     O8      1.417   .     S
B1     C1      1.594   .     S
B1     O5      1.417   .     S
C1     C41     1.418   .     S
C1     C47     1.418   .     S
B2     O7      1.417   .     S
B2     C2      1.594   .     S
B2     O6      1.417   .     S
C2     C43     1.418   .     S
C2     C51     1.418   .     S
B3     O9      1.417   .     S
B3     C3      1.594   .     S
B3     O4      1.417   .     S
C3     C45     1.418   .     S
C3     C49     1.418   .     S
B4     O11     1.417   .     S
B4     C4      1.594   .     S
B4     O2      1.417   .     S
C4     C35     1.418   .     S
C4     C53     1.418   .     S
B5     O10     1.417   .     S
B5     C5      1.594   .     S
B5     O3      1.417   .     S
C5     C37     1.418   .     S
C5     C57     1.418   .     S
B6     O12     1.417   .     S
B6     C6      1.594   .     S
B6     O1      1.417   .     S
C6     C39     1.418   .     S
C6     C55     1.418   .     S
C7     C40     1.406   .     S
C7     C31     1.549   .     S
C7     C29     1.410   .     S
C8     C56     1.401   .     S
C8     O1      1.393   .     S
C8     C30     1.393   .     S
H1     C56     1.092   .     S
C9     C36     1.406   .     S
C9     C31     1.549   .     S
C9     C27     1.410   .     S
C10    C54     1.401   .     S
C10    O2      1.393   .     S
C10    C28     1.393   .     S
H2     C54     1.092   .     S
C11    C38     1.406   .     S
C11    C31     1.549   .     S
C11    C25     1.410   .     S
C12    O3      1.393   .     S
C12    C58     1.401   .     S
C12    C26     1.393   .     S
H3     C58     1.092   .     S
C13    C32     1.549   .     S
C13    C46     1.406   .     S
C13    C23     1.410   .     S
C14    O4      1.393   .     S
C14    C50     1.401   .     S
C14    C24     1.393   .     S
H4     C50     1.092   .     S
C15    C32     1.549   .     S
C15    C42     1.406   .     S
C15    C21     1.410   .     S
C16    O5      1.393   .     S
C16    C48     1.401   .     S
C16    C22     1.393   .     S
H5     C48     1.092   .     S
C17    C32     1.549   .     S
C17    C44     1.406   .     S
C17    C19     1.410   .     S
C18    O6      1.393   .     S
C18    C52     1.401   .     S
C18    C20     1.393   .     S
H6     C52     1.092   .     S
C19    C33     1.549   .     S
C19    C52     1.406   .     S
C20    O7      1.393   .     S
C20    C44     1.401   .     S
H7     C44     1.092   .     S
C21    C33     1.549   .     S
C21    C48     1.406   .     S
C22    O8      1.393   .     S
C22    C42     1.401   .     S
H8     C42     1.092   .     S
C23    C33     1.549   .     S
C23    C50     1.406   .     S
C24    O9      1.393   .     S
C24    C46     1.401   .     S
H9     C46     1.092   .     S
C25    C58     1.406   .     S
C25    C34     1.549   .     S
C26    O10     1.393   .     S
C26    C38     1.401   .     S
H10    C38     1.092   .     S
C27    C54     1.406   .     S
C27    C34     1.549   .     S
C28    C36     1.401   .     S
C28    O11     1.393   .     S
H11    C36     1.092   .     S
C29    C56     1.406   .     S
C29    C34     1.549   .     S
C30    C40     1.401   .     S
C30    O12     1.393   .     S
H12    C40     1.092   .     S
C31    H16     1.099   .     S
H13    C34     1.099   .     S
C32    H15     1.099   .     S
H14    C33     1.099   .     S
C35    C41     1.404   .     S
C35    H17     1.093   .     S
C37    H18     1.093   .     S
C39    H19     1.093   .     S
C41    H20     1.093   .     S
C43    H21     1.093   .     S
C45    H22     1.093   .     S
C47    C53     1.404   .     S
C47    H23     1.093   .     S
C49    H24     1.093   .     S
C51    H25     1.093   .     S
C53    H26     1.093   .     S
C55    H27     1.093   .     S
C57    H28     1.093   .     S
