data_TFP-COF
_audit_creation_date              2016-12-13
_audit_creation_method            'Materials Studio'
_symmetry_space_group_name_H-M    'P1'
_symmetry_Int_Tables_number       1
_symmetry_cell_setting            triclinic
loop_
_symmetry_equiv_pos_as_xyz
  x,y,z
_cell_length_a                    29.8330
_cell_length_b                    29.8330
_cell_length_c                    3.6214
_cell_angle_alpha                 90.0000
_cell_angle_beta                  90.0000
_cell_angle_gamma                 120.0000
loop_
_atom_site_label
_atom_site_type_symbol
_atom_site_fract_x
_atom_site_fract_y
_atom_site_fract_z
_atom_site_U_iso_or_equiv
_atom_site_adp_type
_atom_site_occupancy
C1     C     0.68317   0.38629   0.00000   0.00000  Uiso   1.00
C2     C     0.62934   0.35020   0.00000   0.00000  Uiso   1.00
C3     C     0.59309   0.36240   0.00000   0.00000  Uiso   1.00
N1     N     0.60004   0.41163   0.00000   0.00000  Uiso   1.00
C4     C     0.56079   0.42318   0.00000   0.00000  Uiso   1.00
C5     C     0.51053   0.38683   0.00000   0.00000  Uiso   1.00
C6     C     0.44994   0.46320   0.00000   0.00000  Uiso   1.00
C7     C     0.48670   0.44984   0.00000   0.00000  Uiso   1.00
C8     C     0.53695   0.48675   0.00000   0.00000  Uiso   1.00
C9     C     0.47409   0.40005   0.00000   0.00000  Uiso   1.00
C10    C     0.57332   0.47290   0.00000   0.00000  Uiso   1.00
O1     O     0.59342   0.56872   0.00000   0.00000  Uiso   1.00
O2     O     0.69760   0.43014   0.00000   0.00000  Uiso   1.00
H1     H     0.44436   0.66768   0.00000   0.00000  Uiso   1.00
H2     H     0.50177   0.65196   0.00000   0.00000  Uiso   1.00
H3     H     0.56439   0.62874   0.00000   0.00000  Uiso   1.00
H4     H     0.38810   0.49879   0.00000   0.00000  Uiso   1.00
H5     H     0.63518   0.44226   0.00000   0.00000  Uiso   1.00
C11    C     0.61371   0.29688   0.00000   0.00000  Uiso   1.00
C12    C     0.64980   0.27914   0.00000   0.00000  Uiso   1.00
C13    C     0.63760   0.23069   0.00000   0.00000  Uiso   1.00
N2     N     0.58837   0.18841   0.00000   0.00000  Uiso   1.00
C14    C     0.57682   0.13761   0.00000   0.00000  Uiso   1.00
C15    C     0.61317   0.12370   0.00000   0.00000  Uiso   1.00
C16    C     0.53680   0.98674   0.00000   0.00000  Uiso   1.00
C17    C     0.55016   0.03686   0.00000   0.00000  Uiso   1.00
C18    C     0.51325   0.05020   0.00000   0.00000  Uiso   1.00
C19    C     0.59995   0.07404   0.00000   0.00000  Uiso   1.00
C20    C     0.52710   0.10042   0.00000   0.00000  Uiso   1.00
O3     O     0.43128   0.02470   0.00000   0.00000  Uiso   1.00
O4     O     0.56986   0.26746   0.00000   0.00000  Uiso   1.00
H6     H     0.33232   0.77668   0.00000   0.00000  Uiso   1.00
H7     H     0.34804   0.84981   0.00000   0.00000  Uiso   1.00
H8     H     0.37126   0.93565   0.00000   0.00000  Uiso   1.00
H9     H     0.50121   0.88931   0.00000   0.00000  Uiso   1.00
H10    H     0.55774   0.19292   0.00000   0.00000  Uiso   1.00
C21    C     0.70312   0.31683   0.00000   0.00000  Uiso   1.00
C22    C     0.72086   0.37066   0.00000   0.00000  Uiso   1.00
C23    C     0.76931   0.40691   0.00000   0.00000  Uiso   1.00
N3     N     0.81159   0.39996   0.00000   0.00000  Uiso   1.00
C24    C     0.86239   0.43921   0.00000   0.00000  Uiso   1.00
C25    C     0.87630   0.48947   0.00000   0.00000  Uiso   1.00
C26    C     0.01326   0.55006   0.00000   0.00000  Uiso   1.00
C27    C     0.96314   0.51330   0.00000   0.00000  Uiso   1.00
C28    C     0.94980   0.46305   0.00000   0.00000  Uiso   1.00
C29    C     0.92596   0.52591   0.00000   0.00000  Uiso   1.00
C30    C     0.89958   0.42668   0.00000   0.00000  Uiso   1.00
O5     O     0.97530   0.40658   0.00000   0.00000  Uiso   1.00
O6     O     0.73254   0.30240   0.00000   0.00000  Uiso   1.00
H11    H     0.22332   0.55564   0.00000   0.00000  Uiso   1.00
H12    H     0.15019   0.49823   0.00000   0.00000  Uiso   1.00
H13    H     0.06435   0.43561   0.00000   0.00000  Uiso   1.00
H14    H     0.11069   0.61190   0.00000   0.00000  Uiso   1.00
H15    H     0.80708   0.36482   0.00000   0.00000  Uiso   1.00
C31    C     0.31683   0.61371   0.00000   0.00000  Uiso   1.00
C32    C     0.37066   0.64980   0.00000   0.00000  Uiso   1.00
C33    C     0.40691   0.63760   0.00000   0.00000  Uiso   1.00
N4     N     0.39996   0.58837   0.00000   0.00000  Uiso   1.00
C34    C     0.43921   0.57682   0.00000   0.00000  Uiso   1.00
C35    C     0.48947   0.61317   0.00000   0.00000  Uiso   1.00
C36    C     0.55006   0.53680   0.00000   0.00000  Uiso   1.00
C37    C     0.51330   0.55016   0.00000   0.00000  Uiso   1.00
C38    C     0.46305   0.51325   0.00000   0.00000  Uiso   1.00
C39    C     0.52591   0.59995   0.00000   0.00000  Uiso   1.00
C40    C     0.42668   0.52710   0.00000   0.00000  Uiso   1.00
O7     O     0.40658   0.43128   0.00000   0.00000  Uiso   1.00
O8     O     0.30240   0.56986   0.00000   0.00000  Uiso   1.00
H16    H     0.55564   0.33232   0.00000   0.00000  Uiso   1.00
H17    H     0.49823   0.34804   0.00000   0.00000  Uiso   1.00
H18    H     0.43561   0.37126   0.00000   0.00000  Uiso   1.00
H19    H     0.61190   0.50121   0.00000   0.00000  Uiso   1.00
H20    H     0.36482   0.55774   0.00000   0.00000  Uiso   1.00
C41    C     0.38629   0.70312   0.00000   0.00000  Uiso   1.00
C42    C     0.35020   0.72086   0.00000   0.00000  Uiso   1.00
C43    C     0.36240   0.76931   0.00000   0.00000  Uiso   1.00
N5     N     0.41163   0.81159   0.00000   0.00000  Uiso   1.00
C44    C     0.42318   0.86239   0.00000   0.00000  Uiso   1.00
C45    C     0.38683   0.87630   0.00000   0.00000  Uiso   1.00
C46    C     0.46320   0.01326   0.00000   0.00000  Uiso   1.00
C47    C     0.44984   0.96314   0.00000   0.00000  Uiso   1.00
C48    C     0.48675   0.94980   0.00000   0.00000  Uiso   1.00
C49    C     0.40005   0.92596   0.00000   0.00000  Uiso   1.00
C50    C     0.47290   0.89958   0.00000   0.00000  Uiso   1.00
O9     O     0.56872   0.97530   0.00000   0.00000  Uiso   1.00
O10    O     0.43014   0.73254   0.00000   0.00000  Uiso   1.00
H21    H     0.66768   0.22332   0.00000   0.00000  Uiso   1.00
H22    H     0.65196   0.15019   0.00000   0.00000  Uiso   1.00
H23    H     0.62874   0.06435   0.00000   0.00000  Uiso   1.00
H24    H     0.49879   0.11069   0.00000   0.00000  Uiso   1.00
H25    H     0.44226   0.80708   0.00000   0.00000  Uiso   1.00
C51    C     0.29688   0.68317   0.00000   0.00000  Uiso   1.00
C52    C     0.27914   0.62934   0.00000   0.00000  Uiso   1.00
C53    C     0.23069   0.59309   0.00000   0.00000  Uiso   1.00
N6     N     0.18841   0.60004   0.00000   0.00000  Uiso   1.00
C54    C     0.13761   0.56079   0.00000   0.00000  Uiso   1.00
C55    C     0.12370   0.51053   0.00000   0.00000  Uiso   1.00
C56    C     0.98674   0.44994   0.00000   0.00000  Uiso   1.00
C57    C     0.03686   0.48670   0.00000   0.00000  Uiso   1.00
C58    C     0.05020   0.53695   0.00000   0.00000  Uiso   1.00
C59    C     0.07404   0.47409   0.00000   0.00000  Uiso   1.00
C60    C     0.10042   0.57332   0.00000   0.00000  Uiso   1.00
O11    O     0.02470   0.59342   0.00000   0.00000  Uiso   1.00
O12    O     0.26746   0.69760   0.00000   0.00000  Uiso   1.00
H26    H     0.77668   0.44436   0.00000   0.00000  Uiso   1.00
H27    H     0.84981   0.50177   0.00000   0.00000  Uiso   1.00
H28    H     0.93565   0.56439   0.00000   0.00000  Uiso   1.00
H29    H     0.88931   0.38810   0.00000   0.00000  Uiso   1.00
H30    H     0.19292   0.63518   0.00000   0.00000  Uiso   1.00
loop_
_geom_bond_atom_site_label_1
_geom_bond_atom_site_label_2
_geom_bond_distance
_geom_bond_site_symmetry_2
_ccdc_geom_bond_type
C1     C2      1.417   .     S
C1     C22     1.416   .     S
C1     O2      1.155   .     S
C2     C3      1.302   .     S
C2     C11     1.416   .     S
C3     N1      1.377   .     S
C3     H16     1.025   .     S
N1     H5      0.988   .     S
N1     C4      1.376   .     S
C4     C10     1.336   .     S
C4     C5      1.341   .     S
C5     H17     1.024   .     S
C5     C9      1.329   .     S
C6     O7      1.161   .     S
C6     C7      1.341   .     S
C6     C38     1.341   .     S
C7     C8      1.345   .     S
C7     C9      1.338   .     S
C8     C36     1.341   .     S
C8     C10     1.340   .     S
C9     H18     1.034   .     S
C10    H19     1.032   .     S
O1     C36     1.161   .     S
H1     C33     1.025   .     S
H2     C35     1.024   .     S
H3     C39     1.034   .     S
H4     C40     1.032   .     S
C11    C12     1.417   .     S
C11    O4      1.155   .     S
C12    C21     1.416   .     S
C12    C13     1.302   .     S
C13    H21     1.025   .     S
C13    N2      1.377   .     S
N2     C14     1.376   .     S
N2     H10     0.988   .     S
C14    C20     1.336   .     S
C14    C15     1.341   .     S
C15    C19     1.329   .     S
C15    H22     1.024   .     S
C16    O9      1.161   .     S
C16    C48     1.341   .     S
C17    C18     1.345   .     S
C17    C19     1.338   .     S
C18    C46     1.341   .     S
C18    C20     1.340   .     S
C19    H23     1.034   .     S
C20    H24     1.032   .     S
O3     C46     1.161   .     S
H6     C43     1.025   .     S
H7     C45     1.024   .     S
H8     C49     1.034   .     S
H9     C50     1.032   .     S
C21    O6      1.155   .     S
C21    C22     1.417   .     S
C22    C23     1.302   .     S
C23    N3      1.377   .     S
C23    H26     1.025   .     S
N3     H15     0.988   .     S
N3     C24     1.376   .     S
C24    C30     1.336   .     S
C24    C25     1.341   .     S
C25    H27     1.024   .     S
C25    C29     1.329   .     S
C26    O11     1.161   .     S
C26    C58     1.341   .     S
C27    C29     1.338   .     S
C27    C28     1.345   .     S
C28    C56     1.341   .     S
C28    C30     1.340   .     S
C29    H28     1.034   .     S
C30    H29     1.032   .     S
O5     C56     1.161   .     S
H11    C53     1.025   .     S
H12    C55     1.024   .     S
H13    C59     1.034   .     S
H14    C60     1.032   .     S
C31    O8      1.155   .     S
C31    C32     1.417   .     S
C31    C52     1.416   .     S
C32    C33     1.302   .     S
C32    C41     1.416   .     S
C33    N4      1.377   .     S
N4     H20     0.988   .     S
N4     C34     1.376   .     S
C34    C35     1.341   .     S
C34    C40     1.336   .     S
C35    C39     1.329   .     S
C36    C37     1.341   .     S
C37    C39     1.338   .     S
C37    C38     1.345   .     S
C38    C40     1.340   .     S
C41    C42     1.417   .     S
C41    O10     1.155   .     S
C42    C43     1.302   .     S
C42    C51     1.416   .     S
C43    N5      1.377   .     S
N5     H25     0.988   .     S
N5     C44     1.376   .     S
C44    C45     1.341   .     S
C44    C50     1.336   .     S
C45    C49     1.329   .     S
C47    C49     1.338   .     S
C47    C48     1.345   .     S
C48    C50     1.340   .     S
C51    C52     1.417   .     S
C51    O12     1.155   .     S
C52    C53     1.302   .     S
C53    N6      1.377   .     S
N6     C54     1.376   .     S
N6     H30     0.988   .     S
C54    C60     1.336   .     S
C54    C55     1.341   .     S
C55    C59     1.329   .     S
C57    C58     1.345   .     S
C57    C59     1.338   .     S
C58    C60     1.340   .     S
