data_TfpBDH
_audit_creation_date              2016-12-13
_audit_creation_method            'Materials Studio'
_symmetry_space_group_name_H-M    'P1'
_symmetry_Int_Tables_number       1
_symmetry_cell_setting            triclinic
loop_
_symmetry_equiv_pos_as_xyz
  x,y,z
_cell_length_a                    43.8238
_cell_length_b                    43.8238
_cell_length_c                    3.5941
_cell_angle_alpha                 90.0000
_cell_angle_beta                  90.0000
_cell_angle_gamma                 120.0000
loop_
_atom_site_label
_atom_site_type_symbol
_atom_site_fract_x
_atom_site_fract_y
_atom_site_fract_z
_atom_site_U_iso_or_equiv
_atom_site_adp_type
_atom_site_occupancy
C1     C     0.85469   0.45542   0.49999   0.00000  Uiso   1.00
C2     C     0.54458   0.39927   0.49999   0.00000  Uiso   1.00
C3     C     0.60073   0.14531   0.49999   0.00000  Uiso   1.00
C4     C     0.14531   0.54458   0.49999   0.00000  Uiso   1.00
C5     C     0.45542   0.60073   0.49999   0.00000  Uiso   1.00
C6     C     0.39927   0.85469   0.49999   0.00000  Uiso   1.00
N7     N     0.87856   0.44449   0.49999   0.00000  Uiso   1.00
N8     N     0.55551   0.43407   0.49999   0.00000  Uiso   1.00
N9     N     0.56593   0.12144   0.49999   0.00000  Uiso   1.00
N10    N     0.12144   0.55551   0.49999   0.00000  Uiso   1.00
N11    N     0.44449   0.56593   0.49999   0.00000  Uiso   1.00
N12    N     0.43407   0.87856   0.49999   0.00000  Uiso   1.00
N13    N     0.91291   0.46192   0.49999   0.00000  Uiso   1.00
N14    N     0.53808   0.45099   0.49999   0.00000  Uiso   1.00
N15    N     0.54901   0.08709   0.49999   0.00000  Uiso   1.00
N16    N     0.08709   0.53808   0.49999   0.00000  Uiso   1.00
N17    N     0.46192   0.54901   0.49999   0.00000  Uiso   1.00
N18    N     0.45099   0.91291   0.49999   0.00000  Uiso   1.00
C19    C     0.00276   0.53414   0.49999   0.00000  Uiso   1.00
C20    C     0.46586   0.46861   0.49999   0.00000  Uiso   1.00
C21    C     0.53139   0.99725   0.49999   0.00000  Uiso   1.00
C22    C     0.99725   0.46586   0.49999   0.00000  Uiso   1.00
C23    C     0.53414   0.53139   0.49999   0.00000  Uiso   1.00
C24    C     0.46861   0.00276   0.49999   0.00000  Uiso   1.00
C25    C     0.96982   0.50280   0.49999   0.00000  Uiso   1.00
C26    C     0.49720   0.46701   0.49999   0.00000  Uiso   1.00
C27    C     0.53299   0.03019   0.49999   0.00000  Uiso   1.00
C28    C     0.03019   0.49720   0.49999   0.00000  Uiso   1.00
C29    C     0.50280   0.53299   0.49999   0.00000  Uiso   1.00
C30    C     0.46701   0.96982   0.49999   0.00000  Uiso   1.00
C31    C     0.96718   0.46970   0.49999   0.00000  Uiso   1.00
C32    C     0.53030   0.49747   0.49999   0.00000  Uiso   1.00
C33    C     0.50253   0.03283   0.49999   0.00000  Uiso   1.00
C34    C     0.03283   0.53030   0.49999   0.00000  Uiso   1.00
C35    C     0.46970   0.50253   0.49999   0.00000  Uiso   1.00
C36    C     0.49747   0.96718   0.49999   0.00000  Uiso   1.00
C37    C     0.93566   0.49719   0.49999   0.00000  Uiso   1.00
C38    C     0.50281   0.43847   0.49999   0.00000  Uiso   1.00
C39    C     0.56153   0.06434   0.49999   0.00000  Uiso   1.00
C40    C     0.06434   0.50281   0.49999   0.00000  Uiso   1.00
C41    C     0.49719   0.56153   0.49999   0.00000  Uiso   1.00
C42    C     0.43847   0.93566   0.49999   0.00000  Uiso   1.00
C43    C     0.93148   0.44488   0.49999   0.00000  Uiso   1.00
C44    C     0.55512   0.48660   0.49999   0.00000  Uiso   1.00
C45    C     0.51340   0.06852   0.49999   0.00000  Uiso   1.00
C46    C     0.06852   0.55512   0.49999   0.00000  Uiso   1.00
C47    C     0.44488   0.51340   0.49999   0.00000  Uiso   1.00
C48    C     0.48660   0.93148   0.49999   0.00000  Uiso   1.00
H49    H     0.13677   0.51821   0.49999   0.00000  Uiso   1.00
H50    H     0.48179   0.61856   0.49999   0.00000  Uiso   1.00
H51    H     0.38144   0.86323   0.49999   0.00000  Uiso   1.00
H52    H     0.86323   0.48179   0.49999   0.00000  Uiso   1.00
H53    H     0.51821   0.38144   0.49999   0.00000  Uiso   1.00
H54    H     0.61856   0.13677   0.49999   0.00000  Uiso   1.00
O55    O     0.07165   0.47861   0.49999   0.00000  Uiso   1.00
O56    O     0.52139   0.59304   0.49999   0.00000  Uiso   1.00
O57    O     0.40696   0.92835   0.49999   0.00000  Uiso   1.00
O58    O     0.92835   0.52139   0.49999   0.00000  Uiso   1.00
O59    O     0.47861   0.40696   0.49999   0.00000  Uiso   1.00
O60    O     0.59304   0.07165   0.49999   0.00000  Uiso   1.00
O61    O     0.08099   0.58783   0.49999   0.00000  Uiso   1.00
O62    O     0.41217   0.49316   0.49999   0.00000  Uiso   1.00
O63    O     0.50684   0.91902   0.49999   0.00000  Uiso   1.00
O64    O     0.91902   0.41217   0.49999   0.00000  Uiso   1.00
O65    O     0.58783   0.50684   0.49999   0.00000  Uiso   1.00
O66    O     0.49316   0.08099   0.49999   0.00000  Uiso   1.00
H67    H     0.99526   0.44161   0.49999   0.00000  Uiso   1.00
H68    H     0.55839   0.55365   0.49999   0.00000  Uiso   1.00
H69    H     0.44635   0.00474   0.49999   0.00000  Uiso   1.00
H70    H     0.00474   0.55839   0.49999   0.00000  Uiso   1.00
H71    H     0.44161   0.44635   0.49999   0.00000  Uiso   1.00
H72    H     0.55365   0.99526   0.49999   0.00000  Uiso   1.00
C73    C     0.19559   0.60550   0.49999   0.00000  Uiso   1.00
C74    C     0.23217   0.62895   0.49999   0.00000  Uiso   1.00
C75    C     0.39450   0.59009   0.49999   0.00000  Uiso   1.00
C76    C     0.37105   0.60323   0.49999   0.00000  Uiso   1.00
C77    C     0.40991   0.80442   0.49999   0.00000  Uiso   1.00
C78    C     0.39677   0.76783   0.49999   0.00000  Uiso   1.00
C79    C     0.80442   0.39450   0.49999   0.00000  Uiso   1.00
C80    C     0.76783   0.37105   0.49999   0.00000  Uiso   1.00
C81    C     0.60550   0.40991   0.49999   0.00000  Uiso   1.00
C82    C     0.62895   0.39677   0.49999   0.00000  Uiso   1.00
C83    C     0.59009   0.19559   0.49999   0.00000  Uiso   1.00
C84    C     0.60323   0.23217   0.49999   0.00000  Uiso   1.00
H85    H     0.17913   0.61572   0.49999   0.00000  Uiso   1.00
H86    H     0.23913   0.65475   0.49999   0.00000  Uiso   1.00
H87    H     0.38428   0.56340   0.49999   0.00000  Uiso   1.00
H88    H     0.34525   0.58438   0.49999   0.00000  Uiso   1.00
H89    H     0.43660   0.82087   0.49999   0.00000  Uiso   1.00
H90    H     0.41562   0.76087   0.49999   0.00000  Uiso   1.00
H91    H     0.82087   0.38428   0.49999   0.00000  Uiso   1.00
H92    H     0.76087   0.34525   0.49999   0.00000  Uiso   1.00
H93    H     0.61572   0.43660   0.49999   0.00000  Uiso   1.00
H94    H     0.65475   0.41562   0.49999   0.00000  Uiso   1.00
H95    H     0.56340   0.17913   0.49999   0.00000  Uiso   1.00
H96    H     0.58438   0.23913   0.49999   0.00000  Uiso   1.00
C97    C     0.35053   0.79394   0.49999   0.00000  Uiso   1.00
C98    C     0.33773   0.75739   0.49999   0.00000  Uiso   1.00
C99    C     0.20606   0.55658   0.49999   0.00000  Uiso   1.00
C100   C     0.24261   0.58034   0.49999   0.00000  Uiso   1.00
C101   C     0.44342   0.64947   0.49999   0.00000  Uiso   1.00
C102   C     0.41966   0.66227   0.49999   0.00000  Uiso   1.00
C103   C     0.64947   0.20606   0.49999   0.00000  Uiso   1.00
C104   C     0.66227   0.24261   0.49999   0.00000  Uiso   1.00
C105   C     0.79394   0.44342   0.49999   0.00000  Uiso   1.00
C106   C     0.75739   0.41966   0.49999   0.00000  Uiso   1.00
C107   C     0.55658   0.35053   0.49999   0.00000  Uiso   1.00
C108   C     0.58034   0.33773   0.49999   0.00000  Uiso   1.00
H109   H     0.33282   0.80268   0.49999   0.00000  Uiso   1.00
H110   H     0.31111   0.74237   0.49999   0.00000  Uiso   1.00
H111   H     0.19732   0.53014   0.49999   0.00000  Uiso   1.00
H112   H     0.25763   0.56873   0.49999   0.00000  Uiso   1.00
H113   H     0.46986   0.66718   0.49999   0.00000  Uiso   1.00
H114   H     0.43127   0.68889   0.49999   0.00000  Uiso   1.00
H115   H     0.66718   0.19732   0.49999   0.00000  Uiso   1.00
H116   H     0.68889   0.25763   0.49999   0.00000  Uiso   1.00
H117   H     0.80268   0.46986   0.49999   0.00000  Uiso   1.00
H118   H     0.74237   0.43127   0.49999   0.00000  Uiso   1.00
H119   H     0.53014   0.33282   0.49999   0.00000  Uiso   1.00
H120   H     0.56873   0.31111   0.49999   0.00000  Uiso   1.00
C121   C     0.34677   0.70467   0.49999   0.00000  Uiso   1.00
C122   C     0.29533   0.64210   0.49999   0.00000  Uiso   1.00
C123   C     0.35790   0.65323   0.49999   0.00000  Uiso   1.00
C124   C     0.38696   0.81822   0.49999   0.00000  Uiso   1.00
C125   C     0.18178   0.56874   0.49999   0.00000  Uiso   1.00
C126   C     0.43126   0.61304   0.49999   0.00000  Uiso   1.00
C127   C     0.36006   0.74230   0.49999   0.00000  Uiso   1.00
C128   C     0.25770   0.61776   0.49999   0.00000  Uiso   1.00
C129   C     0.38224   0.63994   0.49999   0.00000  Uiso   1.00
C130   C     0.36906   0.68976   0.49999   0.00000  Uiso   1.00
C131   C     0.31024   0.67930   0.49999   0.00000  Uiso   1.00
C132   C     0.32070   0.63094   0.49999   0.00000  Uiso   1.00
C133   C     0.65323   0.29533   0.49999   0.00000  Uiso   1.00
C134   C     0.70467   0.35790   0.49999   0.00000  Uiso   1.00
C135   C     0.64210   0.34677   0.49999   0.00000  Uiso   1.00
C136   C     0.61304   0.18178   0.49999   0.00000  Uiso   1.00
C137   C     0.81822   0.43126   0.49999   0.00000  Uiso   1.00
C138   C     0.56874   0.38696   0.49999   0.00000  Uiso   1.00
C139   C     0.63994   0.25770   0.49999   0.00000  Uiso   1.00
C140   C     0.74230   0.38224   0.49999   0.00000  Uiso   1.00
C141   C     0.61776   0.36006   0.49999   0.00000  Uiso   1.00
C142   C     0.63094   0.31024   0.49999   0.00000  Uiso   1.00
C143   C     0.68976   0.32070   0.49999   0.00000  Uiso   1.00
C144   C     0.67930   0.36906   0.49999   0.00000  Uiso   1.00
H145   H     0.29349   0.68849   0.49999   0.00000  Uiso   1.00
H146   H     0.31151   0.60500   0.49999   0.00000  Uiso   1.00
H147   H     0.39500   0.70651   0.49999   0.00000  Uiso   1.00
H148   H     0.70651   0.31151   0.49999   0.00000  Uiso   1.00
H149   H     0.68849   0.39500   0.49999   0.00000  Uiso   1.00
H150   H     0.60500   0.29349   0.49999   0.00000  Uiso   1.00
loop_
_geom_bond_atom_site_label_1
_geom_bond_atom_site_label_2
_geom_bond_distance
_geom_bond_site_symmetry_2
_ccdc_geom_bond_type
C1     C137    1.409   .     S
C1     N7      1.351   .     S
C1     H52     1.021   .     S
C2     H53     1.021   .     S
C2     C138    1.409   .     S
C2     N8      1.351   .     S
C3     C136    1.409   .     S
C3     H54     1.021   .     S
C3     N9      1.351   .     S
C4     N10     1.351   .     S
C4     H49     1.021   .     S
C4     C125    1.409   .     S
C5     N11     1.351   .     S
C5     C126    1.409   .     S
C5     H50     1.021   .     S
C6     N12     1.351   .     S
C6     H51     1.021   .     S
C6     C124    1.409   .     S
N7     N13     1.304   .     S
N8     N14     1.304   .     S
N9     N15     1.304   .     S
N10    N16     1.304   .     S
N11    N17     1.304   .     S
N12    N18     1.304   .     S
N13    C43     1.352   .     S
N13    C37     1.357   .     S
N14    C38     1.357   .     S
N14    C44     1.352   .     S
N15    C45     1.352   .     S
N15    C39     1.357   .     S
N16    C46     1.352   .     S
N16    C40     1.357   .     S
N17    C47     1.352   .     S
N17    C41     1.357   .     S
N18    C48     1.352   .     S
N18    C42     1.357   .     S
C19    H70     1.022   .     S
C19    C34     1.410   .     S
C20    C35     1.410   .     S
C20    C26     1.410   .     S
C20    H71     1.022   .     S
C21    H72     1.022   .     S
C21    C36     1.410   .     S
C22    H67     1.022   .     S
C22    C31     1.410   .     S
C23    H68     1.022   .     S
C23    C29     1.410   .     S
C23    C32     1.410   .     S
C24    H69     1.022   .     S
C24    C33     1.410   .     S
C25    C37     1.390   .     S
C25    C31     1.396   .     S
C26    C32     1.396   .     S
C26    C38     1.390   .     S
C27    C33     1.396   .     S
C27    C39     1.390   .     S
C28    C40     1.390   .     S
C28    C34     1.396   .     S
C29    C41     1.390   .     S
C29    C35     1.396   .     S
C30    C42     1.390   .     S
C30    C36     1.396   .     S
C31    C43     1.389   .     S
C32    C44     1.389   .     S
C33    C45     1.389   .     S
C34    C46     1.389   .     S
C35    C47     1.389   .     S
C36    C48     1.389   .     S
C37    O58     1.252   .     S
C38    O59     1.252   .     S
C39    O60     1.252   .     S
C40    O55     1.252   .     S
C41    O56     1.252   .     S
C42    O57     1.252   .     S
C43    O64     1.253   .     S
C44    O65     1.253   .     S
C45    O66     1.253   .     S
C46    O61     1.253   .     S
C47    O62     1.253   .     S
C48    O63     1.253   .     S
C73    C125    1.409   .     S
C73    C74     1.407   .     S
C73    H85     1.022   .     S
C74    C128    1.428   .     S
C74    H86     1.013   .     S
C75    H87     1.022   .     S
C75    C76     1.407   .     S
C75    C126    1.409   .     S
C76    H88     1.013   .     S
C76    C129    1.428   .     S
C77    H89     1.022   .     S
C77    C124    1.409   .     S
C77    C78     1.407   .     S
C78    H90     1.013   .     S
C78    C127    1.428   .     S
C79    H91     1.022   .     S
C79    C137    1.409   .     S
C79    C80     1.407   .     S
C80    H92     1.013   .     S
C80    C140    1.428   .     S
C81    C138    1.409   .     S
C81    C82     1.407   .     S
C81    H93     1.022   .     S
C82    H94     1.013   .     S
C82    C141    1.428   .     S
C83    C84     1.407   .     S
C83    C136    1.409   .     S
C83    H95     1.022   .     S
C84    C139    1.428   .     S
C84    H96     1.013   .     S
C97    H109    1.023   .     S
C97    C124    1.408   .     S
C97    C98     1.408   .     S
C98    H110    1.013   .     S
C98    C127    1.429   .     S
C99    H111    1.023   .     S
C99    C100    1.408   .     S
C99    C125    1.408   .     S
C100   H112    1.013   .     S
C100   C128    1.429   .     S
C101   C126    1.408   .     S
C101   C102    1.408   .     S
C101   H113    1.023   .     S
C102   H114    1.013   .     S
C102   C129    1.429   .     S
C103   H115    1.023   .     S
C103   C104    1.408   .     S
C103   C136    1.408   .     S
C104   H116    1.013   .     S
C104   C139    1.429   .     S
C105   C137    1.408   .     S
C105   H117    1.023   .     S
C105   C106    1.408   .     S
C106   C140    1.429   .     S
C106   H118    1.013   .     S
C107   H119    1.023   .     S
C107   C108    1.408   .     S
C107   C138    1.408   .     S
C108   C141    1.429   .     S
C108   H120    1.013   .     S
C121   C127    1.449   .     S
C121   C131    1.421   .     S
C121   C130    1.421   .     S
C122   C128    1.449   .     S
C122   C132    1.421   .     S
C122   C131    1.421   .     S
C123   C132    1.421   .     S
C123   C129    1.449   .     S
C123   C130    1.421   .     S
C130   H147    0.999   .     S
C131   H145    0.999   .     S
C132   H146    0.999   .     S
C133   C142    1.421   .     S
C133   C143    1.421   .     S
C133   C139    1.449   .     S
C134   C144    1.421   .     S
C134   C140    1.449   .     S
C134   C143    1.421   .     S
C135   C141    1.449   .     S
C135   C144    1.421   .     S
C135   C142    1.421   .     S
C142   H150    0.999   .     S
C143   H148    0.999   .     S
C144   H149    0.999   .     S
