data_TFPT-COF
_audit_creation_date              2016-12-13
_audit_creation_method            'Materials Studio'
_symmetry_space_group_name_H-M    'P1'
_symmetry_Int_Tables_number       1
_symmetry_cell_setting            triclinic
loop_
_symmetry_equiv_pos_as_xyz
  x,y,z
_cell_length_a                    46.6799
_cell_length_b                    46.7001
_cell_length_c                    3.4000
_cell_angle_alpha                 90.0000
_cell_angle_beta                  90.0000
_cell_angle_gamma                 60.0269
loop_
_atom_site_label
_atom_site_type_symbol
_atom_site_fract_x
_atom_site_fract_y
_atom_site_fract_z
_atom_site_U_iso_or_equiv
_atom_site_adp_type
_atom_site_occupancy
C1     C     0.48772   0.53463   1.47403   0.00000  Uiso   1.00
C2     C     0.52248   0.51278   1.48128   0.00000  Uiso   1.00
C3     C     0.53385   0.47834   1.48088   0.00000  Uiso   1.00
C4     C     0.51225   0.46539   1.47358   0.00000  Uiso   1.00
C5     C     0.47749   0.48723   1.46605   0.00000  Uiso   1.00
C6     C     0.46613   0.52168   1.46656   0.00000  Uiso   1.00
H1     H     0.55867   0.46196   1.48602   0.00000  Uiso   1.00
H2     H     0.44131   0.53805   1.46124   0.00000  Uiso   1.00
C7     C     0.45416   0.47610   1.45806   0.00000  Uiso   1.00
O1     O     0.42368   0.49650   1.45958   0.00000  Uiso   1.00
C8     C     0.54582   0.52391   1.48867   0.00000  Uiso   1.00
O2     O     0.57627   0.50349   1.50192   0.00000  Uiso   1.00
N1     N     0.46239   0.44388   1.44986   0.00000  Uiso   1.00
H3     H     0.48610   0.42847   1.44972   0.00000  Uiso   1.00
N2     N     0.53763   0.55612   1.48379   0.00000  Uiso   1.00
H4     H     0.51393   0.57153   1.47430   0.00000  Uiso   1.00
O3     O     0.52475   0.43193   1.47395   0.00000  Uiso   1.00
O4     O     0.47524   0.56808   1.47441   0.00000  Uiso   1.00
C9     C     0.55557   0.37335   1.47526   0.00000  Uiso   1.00
C10    C     0.55806   0.40494   1.47808   0.00000  Uiso   1.00
H5     H     0.58018   0.35148   1.47857   0.00000  Uiso   1.00
H6     H     0.54249   0.37278   1.21179   0.00000  Uiso   1.00
H7     H     0.54190   0.37289   1.73341   0.00000  Uiso   1.00
H8     H     0.57153   0.40569   1.21784   0.00000  Uiso   1.00
H9     H     0.57097   0.40575   1.74338   0.00000  Uiso   1.00
C11    C     0.44439   0.62667   1.46999   0.00000  Uiso   1.00
C12    C     0.44194   0.59506   1.46604   0.00000  Uiso   1.00
H10    H     0.41977   0.64853   1.46342   0.00000  Uiso   1.00
H11    H     0.45832   0.62706   1.21396   0.00000  Uiso   1.00
H12    H     0.45719   0.62735   1.73547   0.00000  Uiso   1.00
H13    H     0.42928   0.59414   1.19882   0.00000  Uiso   1.00
H14    H     0.42822   0.59438   1.72417   0.00000  Uiso   1.00
N3     N     0.56117   0.56863   1.48502   0.00000  Uiso   1.00
C13    C     0.55374   0.59937   1.48041   0.00000  Uiso   1.00
H15    H     0.52852   0.61954   1.48375   0.00000  Uiso   1.00
N4     N     0.43889   0.43134   1.43515   0.00000  Uiso   1.00
C14    C     0.44636   0.40059   1.42716   0.00000  Uiso   1.00
H16    H     0.47157   0.38044   1.43945   0.00000  Uiso   1.00
C15    C     0.97808   0.48748   1.33130   0.00000  Uiso   1.00
C16    C     0.96523   0.52222   1.34068   0.00000  Uiso   1.00
C17    C     0.98831   0.53359   1.32627   0.00000  Uiso   1.00
C18    C     0.02279   0.51203   1.30338   0.00000  Uiso   1.00
C19    C     0.03565   0.47729   1.29372   0.00000  Uiso   1.00
C20    C     0.01257   0.46592   1.30823   0.00000  Uiso   1.00
H17    H     0.97991   0.55839   1.33251   0.00000  Uiso   1.00
H18    H     0.02098   0.44111   1.30181   0.00000  Uiso   1.00
C21    C     0.07004   0.45399   1.27042   0.00000  Uiso   1.00
O5     O     0.08010   0.42352   1.27074   0.00000  Uiso   1.00
C22    C     0.93083   0.54552   1.36337   0.00000  Uiso   1.00
O6     O     0.92087   0.57595   1.37778   0.00000  Uiso   1.00
N5     N     0.09401   0.46223   1.24817   0.00000  Uiso   1.00
H19    H     0.08572   0.48593   1.24921   0.00000  Uiso   1.00
N6     N     0.90680   0.53733   1.37257   0.00000  Uiso   1.00
H20    H     0.91503   0.51365   1.36191   0.00000  Uiso   1.00
O7     O     0.04374   0.52453   1.29074   0.00000  Uiso   1.00
O8     O     0.95712   0.47499   1.34470   0.00000  Uiso   1.00
C23    C     0.07152   0.55535   1.27282   0.00000  Uiso   1.00
C24    C     0.03748   0.55782   1.29363   0.00000  Uiso   1.00
H21    H     0.06881   0.57996   1.27419   0.00000  Uiso   1.00
H22    H     0.08429   0.54253   1.00402   0.00000  Uiso   1.00
H23    H     0.08649   0.54146   1.52504   0.00000  Uiso   1.00
H24    H     0.02241   0.57153   1.03940   0.00000  Uiso   1.00
H25    H     0.02465   0.57048   1.56431   0.00000  Uiso   1.00
C25    C     0.92936   0.44414   1.35949   0.00000  Uiso   1.00
C26    C     0.96339   0.44171   1.33756   0.00000  Uiso   1.00
H26    H     0.93208   0.41953   1.35486   0.00000  Uiso   1.00
H27    H     0.91422   0.45829   1.10945   0.00000  Uiso   1.00
H28    H     0.91678   0.45668   1.63024   0.00000  Uiso   1.00
H29    H     0.97606   0.42931   1.06500   0.00000  Uiso   1.00
H30    H     0.97862   0.42776   1.58963   0.00000  Uiso   1.00
N7     N     0.87079   0.56084   1.38994   0.00000  Uiso   1.00
C27    C     0.84747   0.55341   1.39891   0.00000  Uiso   1.00
H31    H     0.85252   0.52819   1.40302   0.00000  Uiso   1.00
N8     N     0.12996   0.43877   1.21733   0.00000  Uiso   1.00
C28    C     0.15320   0.44626   1.19578   0.00000  Uiso   1.00
H32    H     0.14821   0.47145   1.20728   0.00000  Uiso   1.00
C29    C     0.53503   0.97763   1.35927   0.00000  Uiso   1.00
C30    C     0.51318   0.96476   1.38220   0.00000  Uiso   1.00
C31    C     0.47872   0.98782   1.38315   0.00000  Uiso   1.00
C32    C     0.46576   0.02231   1.36245   0.00000  Uiso   1.00
C33    C     0.48761   0.03519   1.33925   0.00000  Uiso   1.00
C34    C     0.52207   0.01212   1.33840   0.00000  Uiso   1.00
H33    H     0.46234   0.97941   1.39939   0.00000  Uiso   1.00
H34    H     0.53844   0.02054   1.32199   0.00000  Uiso   1.00
C35    C     0.47647   0.06959   1.31716   0.00000  Uiso   1.00
O9     O     0.49688   0.07965   1.30510   0.00000  Uiso   1.00
C36    C     0.52432   0.93035   1.40368   0.00000  Uiso   1.00
O10    O     0.50390   0.92037   1.43048   0.00000  Uiso   1.00
N9     N     0.44423   0.09355   1.30894   0.00000  Uiso   1.00
H35    H     0.42882   0.08526   1.31943   0.00000  Uiso   1.00
N10    N     0.55654   0.90633   1.39885   0.00000  Uiso   1.00
H36    H     0.57195   0.91458   1.37874   0.00000  Uiso   1.00
O11    O     0.43230   0.04325   1.36493   0.00000  Uiso   1.00
O12    O     0.56850   0.95667   1.35756   0.00000  Uiso   1.00
C37    C     0.37369   0.07101   1.37472   0.00000  Uiso   1.00
C38    C     0.40530   0.03697   1.38324   0.00000  Uiso   1.00
H37    H     0.35181   0.06829   1.38825   0.00000  Uiso   1.00
H38    H     0.37288   0.08402   1.10434   0.00000  Uiso   1.00
H39    H     0.37347   0.08575   1.62524   0.00000  Uiso   1.00
H40    H     0.40580   0.02214   1.13057   0.00000  Uiso   1.00
H41    H     0.40635   0.02390   1.65538   0.00000  Uiso   1.00
C39    C     0.62710   0.92894   1.34463   0.00000  Uiso   1.00
C40    C     0.59548   0.96296   1.33501   0.00000  Uiso   1.00
H42    H     0.64896   0.93168   1.32785   0.00000  Uiso   1.00
H43    H     0.62725   0.91403   1.09637   0.00000  Uiso   1.00
H44    H     0.62803   0.91611   1.61688   0.00000  Uiso   1.00
H45    H     0.59431   0.97588   1.06106   0.00000  Uiso   1.00
H46    H     0.59504   0.97795   1.58545   0.00000  Uiso   1.00
N11    N     0.56906   0.87032   1.41448   0.00000  Uiso   1.00
C41    C     0.59980   0.84702   1.41012   0.00000  Uiso   1.00
H47    H     0.61998   0.85207   1.40267   0.00000  Uiso   1.00
N12    N     0.43166   0.12952   1.27987   0.00000  Uiso   1.00
C42    C     0.40090   0.15276   1.27166   0.00000  Uiso   1.00
H48    H     0.38075   0.14774   1.29471   0.00000  Uiso   1.00
C43    C     0.56426   0.64963   1.46578   0.00000  Uiso   1.00
C44    C     0.58531   0.66262   1.45627   0.00000  Uiso   1.00
H49    H     0.53779   0.66635   1.47028   0.00000  Uiso   1.00
H50    H     0.57477   0.68918   1.45357   0.00000  Uiso   1.00
C45    C     0.78670   0.56390   1.41555   0.00000  Uiso   1.00
C46    C     0.75266   0.58494   1.42145   0.00000  Uiso   1.00
H51    H     0.79643   0.53745   1.41848   0.00000  Uiso   1.00
H52    H     0.73664   0.57440   1.42884   0.00000  Uiso   1.00
C47    C     0.65006   0.78627   1.40811   0.00000  Uiso   1.00
C48    C     0.66305   0.75224   1.41173   0.00000  Uiso   1.00
H53    H     0.66680   0.79600   1.40068   0.00000  Uiso   1.00
H54    H     0.68962   0.73623   1.40703   0.00000  Uiso   1.00
C49    C     0.59138   0.79545   1.42439   0.00000  Uiso   1.00
C50    C     0.60370   0.76152   1.42819   0.00000  Uiso   1.00
H55    H     0.56487   0.81195   1.42896   0.00000  Uiso   1.00
H56    H     0.58652   0.75236   1.43564   0.00000  Uiso   1.00
C51    C     0.79590   0.61338   1.40151   0.00000  Uiso   1.00
C52    C     0.76196   0.63498   1.40725   0.00000  Uiso   1.00
H57    H     0.81241   0.62338   1.39409   0.00000  Uiso   1.00
H58    H     0.75280   0.66132   1.40417   0.00000  Uiso   1.00
C53    C     0.61374   0.59096   1.46354   0.00000  Uiso   1.00
C54    C     0.63535   0.60330   1.45400   0.00000  Uiso   1.00
H59    H     0.62374   0.56447   1.46639   0.00000  Uiso   1.00
H60    H     0.66170   0.58612   1.44963   0.00000  Uiso   1.00
C55    C     0.65418   0.70102   1.42606   0.00000  Uiso   1.00
C56    C     0.61400   0.80890   1.41428   0.00000  Uiso   1.00
C57    C     0.64045   0.73790   1.42203   0.00000  Uiso   1.00
C58    C     0.64540   0.65377   1.43947   0.00000  Uiso   1.00
C59    C     0.57767   0.61357   1.46972   0.00000  Uiso   1.00
C60    C     0.62225   0.64003   1.44981   0.00000  Uiso   1.00
C61    C     0.70144   0.64500   1.42392   0.00000  Uiso   1.00
C62    C     0.80935   0.57732   1.40544   0.00000  Uiso   1.00
C63    C     0.73832   0.62187   1.41760   0.00000  Uiso   1.00
C64    N     0.68838   0.67929   1.42027   0.00000  Uiso   1.00
C65    N     0.63295   0.68796   1.43565   0.00000  Uiso   1.00
C66    N     0.67969   0.63256   1.43353   0.00000  Uiso   1.00
C67    C     0.43597   0.35029   1.39460   0.00000  Uiso   1.00
C68    C     0.41499   0.33727   1.37040   0.00000  Uiso   1.00
H64    H     0.46241   0.33359   1.40956   0.00000  Uiso   1.00
H65    H     0.42556   0.31071   1.36705   0.00000  Uiso   1.00
C69    C     0.21386   0.43583   1.24320   0.00000  Uiso   1.00
C70    C     0.24786   0.41481   1.26266   0.00000  Uiso   1.00
H66    H     0.20410   0.46229   1.24720   0.00000  Uiso   1.00
H67    H     0.26383   0.42538   1.28139   0.00000  Uiso   1.00
C71    C     0.35063   0.21349   1.25680   0.00000  Uiso   1.00
C72    C     0.33761   0.24752   1.26154   0.00000  Uiso   1.00
H68    H     0.33395   0.20373   1.23784   0.00000  Uiso   1.00
H69    H     0.31107   0.26351   1.24616   0.00000  Uiso   1.00
C73    C     0.40920   0.20436   1.30303   0.00000  Uiso   1.00
C74    C     0.39683   0.23829   1.30829   0.00000  Uiso   1.00
H70    H     0.43568   0.18788   1.31814   0.00000  Uiso   1.00
H71    H     0.41397   0.24748   1.32738   0.00000  Uiso   1.00
C75    C     0.20478   0.38631   1.21213   0.00000  Uiso   1.00
C76    C     0.23868   0.36474   1.23124   0.00000  Uiso   1.00
H72    H     0.18832   0.37629   1.19323   0.00000  Uiso   1.00
H73    H     0.24787   0.33839   1.22681   0.00000  Uiso   1.00
C77    C     0.38648   0.40894   1.37944   0.00000  Uiso   1.00
C78    C     0.36495   0.39657   1.35507   0.00000  Uiso   1.00
H74    H     0.37645   0.43544   1.38323   0.00000  Uiso   1.00
H75    H     0.33862   0.41373   1.34042   0.00000  Uiso   1.00
C79    C     0.34635   0.29877   1.29314   0.00000  Uiso   1.00
C80    C     0.38666   0.19088   1.27726   0.00000  Uiso   1.00
C81    C     0.36013   0.26189   1.28771   0.00000  Uiso   1.00
C82    C     0.35502   0.34606   1.32281   0.00000  Uiso   1.00
C83    C     0.42252   0.38635   1.39992   0.00000  Uiso   1.00
C84    C     0.37809   0.35983   1.34916   0.00000  Uiso   1.00
C85    C     0.29909   0.35477   1.27866   0.00000  Uiso   1.00
C86    C     0.19129   0.42238   1.21742   0.00000  Uiso   1.00
C87    C     0.26224   0.37788   1.25773   0.00000  Uiso   1.00
C88    N     0.31219   0.32049   1.27387   0.00000  Uiso   1.00
C89    N     0.36751   0.31187   1.31753   0.00000  Uiso   1.00
C90    N     0.32077   0.36725   1.30321   0.00000  Uiso   1.00
loop_
_geom_bond_atom_site_label_1
_geom_bond_atom_site_label_2
_geom_bond_distance
_geom_bond_site_symmetry_2
_ccdc_geom_bond_type
C1     O4      1.368   .     S
C1     C6      1.411   .     S
C1     C2      1.421   .     S
C2     C8      1.422   .     S
C2     C3      1.420   .     S
C3     H1      1.021   .     S
C3     C4      1.411   .     S
C4     C5      1.421   .     S
C4     O3      1.367   .     S
C5     C6      1.420   .     S
C5     C7      1.422   .     S
C6     H2      1.021   .     S
C7     N1      1.355   .     S
C7     O1      1.256   .     S
C8     O2      1.256   .     S
C8     N2      1.355   .     S
N1     H3      0.973   .     S
N1     N4      1.480   .     S
N2     N3      1.480   .     S
N2     H4      0.973   .     S
O3     C10     1.431   .     S
O4     C12     1.431   .     S
C9     H5      1.091   .     S
C9     H6      1.092   .     S
C9     C10     1.537   .     S
C9     H7      1.092   .     S
C10    H8      1.096   .     S
C10    H9      1.096   .     S
C11    H10     1.091   .     S
C11    H11     1.092   .     S
C11    C12     1.537   .     S
C11    H12     1.092   .     S
C12    H13     1.096   .     S
C12    H14     1.096   .     S
N3     C13     1.298   .     S
C13    H15     1.080   .     S
C13    C59     1.558   .     S
N4     C14     1.298   .     S
C14    H16     1.080   .     S
C14    C83     1.558   .     S
C15    C16     1.421   .     S
C15    O8      1.368   .     S
C16    C22     1.422   .     S
C16    C17     1.420   .     S
C17    H17     1.021   .     S
C18    O7      1.367   .     S
C18    C19     1.421   .     S
C19    C21     1.422   .     S
C19    C20     1.420   .     S
C20    H18     1.021   .     S
C21    N5      1.355   .     S
C21    O5      1.256   .     S
C22    N6      1.355   .     S
C22    O6      1.256   .     S
N5     N8      1.480   .     S
N5     H19     0.973   .     S
N6     N7      1.480   .     S
N6     H20     0.973   .     S
O7     C24     1.431   .     S
O8     C26     1.431   .     S
C23    H23     1.092   .     S
C23    C24     1.537   .     S
C23    H21     1.091   .     S
C23    H22     1.092   .     S
C24    H24     1.096   .     S
C24    H25     1.096   .     S
C25    H27     1.092   .     S
C25    C26     1.537   .     S
C25    H26     1.091   .     S
C25    H28     1.092   .     S
C26    H29     1.096   .     S
C26    H30     1.096   .     S
N7     C27     1.298   .     S
C27    H31     1.080   .     S
C27    C62     1.558   .     S
N8     C28     1.298   .     S
C28    H32     1.080   .     S
C28    C86     1.558   .     S
C29    C30     1.421   .     S
C29    O12     1.368   .     S
C30    C31     1.420   .     S
C30    C36     1.422   .     S
C31    H33     1.021   .     S
C32    O11     1.367   .     S
C32    C33     1.421   .     S
C33    C34     1.420   .     S
C33    C35     1.422   .     S
C34    H34     1.021   .     S
C35    O9      1.256   .     S
C35    N9      1.355   .     S
C36    O10     1.256   .     S
C36    N10     1.355   .     S
N9     N12     1.480   .     S
N9     H35     0.973   .     S
N10    H36     0.973   .     S
N10    N11     1.480   .     S
O11    C38     1.431   .     S
O12    C40     1.431   .     S
C37    H37     1.091   .     S
C37    H38     1.092   .     S
C37    C38     1.537   .     S
C37    H39     1.092   .     S
C38    H40     1.096   .     S
C38    H41     1.096   .     S
C39    C40     1.537   .     S
C39    H42     1.091   .     S
C39    H43     1.092   .     S
C39    H44     1.092   .     S
C40    H45     1.096   .     S
C40    H46     1.096   .     S
N11    C41     1.298   .     S
C41    H47     1.080   .     S
C41    C56     1.558   .     S
N12    C42     1.298   .     S
C42    H48     1.080   .     S
C42    C80     1.558   .     S
C43    C59     1.474   .     S
C43    H49     1.083   .     S
C43    C44     1.389   .     S
C44    H50     1.082   .     S
C44    C60     1.506   .     S
C45    H51     1.083   .     S
C45    C62     1.474   .     S
C45    C46     1.389   .     S
C46    H52     1.082   .     S
C46    C63     1.506   .     S
C47    C48     1.389   .     S
C47    C56     1.474   .     S
C47    H53     1.083   .     S
C48    H54     1.082   .     S
C48    C57     1.506   .     S
C49    C56     1.474   .     S
C49    H55     1.083   .     S
C49    C50     1.389   .     S
C50    H56     1.082   .     S
C50    C57     1.506   .     S
C51    H57     1.083   .     S
C51    C52     1.389   .     S
C51    C62     1.474   .     S
C52    C63     1.506   .     S
C52    H58     1.082   .     S
C53    C54     1.389   .     S
C53    C59     1.474   .     S
C53    H59     1.083   .     S
C54    H60     1.082   .     S
C54    C60     1.506   .     S
C55    C57     1.508   .     S
C55    C65     1.400   .     S
C55    C64     1.400   .     S
C58    C60     1.508   .     S
C58    C66     1.400   .     S
C58    C65     1.400   .     S
C61    C66     1.400   .     S
C61    C63     1.508   .     S
C61    C64     1.400   .     S
C67    C83     1.474   .     S
C67    H64     1.083   .     S
C67    C68     1.389   .     S
C68    H65     1.082   .     S
C68    C84     1.506   .     S
C69    C70     1.389   .     S
C69    C86     1.474   .     S
C69    H66     1.083   .     S
C70    H67     1.082   .     S
C70    C87     1.506   .     S
C71    C80     1.474   .     S
C71    H68     1.083   .     S
C71    C72     1.389   .     S
C72    C81     1.506   .     S
C72    H69     1.082   .     S
C73    H70     1.083   .     S
C73    C80     1.474   .     S
C73    C74     1.389   .     S
C74    C81     1.506   .     S
C74    H71     1.082   .     S
C75    H72     1.083   .     S
C75    C76     1.389   .     S
C75    C86     1.474   .     S
C76    C87     1.506   .     S
C76    H73     1.082   .     S
C77    H74     1.083   .     S
C77    C78     1.389   .     S
C77    C83     1.474   .     S
C78    H75     1.082   .     S
C78    C84     1.506   .     S
C79    C89     1.400   .     S
C79    C88     1.400   .     S
C79    C81     1.508   .     S
C82    C89     1.400   .     S
C82    C90     1.400   .     S
C82    C84     1.508   .     S
C85    C87     1.508   .     S
C85    C90     1.400   .     S
C85    C88     1.400   .     S
