data_TH-COF-1
_audit_creation_date              2016-12-13
_audit_creation_method            'Materials Studio'
_symmetry_space_group_name_H-M    'P1'
_symmetry_Int_Tables_number       1
_symmetry_cell_setting            triclinic
loop_
_symmetry_equiv_pos_as_xyz
  x,y,z
_cell_length_a                    22.7791
_cell_length_b                    22.7791
_cell_length_c                    3.5665
_cell_angle_alpha                 90.0000
_cell_angle_beta                  90.0000
_cell_angle_gamma                 120.0000
loop_
_atom_site_label
_atom_site_type_symbol
_atom_site_fract_x
_atom_site_fract_y
_atom_site_fract_z
_atom_site_U_iso_or_equiv
_atom_site_adp_type
_atom_site_occupancy
C1     C     0.73585   0.38320   0.49999   0.00000  Uiso   1.00
C2     C     0.61679   0.35264   0.49999   0.00000  Uiso   1.00
C3     C     0.64736   0.26415   0.49999   0.00000  Uiso   1.00
C4     C     0.26415   0.61679   0.49999   0.00000  Uiso   1.00
C5     C     0.38320   0.64736   0.49999   0.00000  Uiso   1.00
C6     C     0.35264   0.73585   0.49999   0.00000  Uiso   1.00
C7     C     0.68594   0.40207   0.49999   0.00000  Uiso   1.00
C8     C     0.59793   0.28387   0.49999   0.00000  Uiso   1.00
C9     C     0.71613   0.31406   0.49999   0.00000  Uiso   1.00
C10    C     0.31406   0.59793   0.49999   0.00000  Uiso   1.00
C11    C     0.40207   0.71613   0.49999   0.00000  Uiso   1.00
C12    C     0.28387   0.68594   0.49999   0.00000  Uiso   1.00
C13    C     0.80816   0.43611   0.49999   0.00000  Uiso   1.00
C14    C     0.56388   0.37205   0.49999   0.00000  Uiso   1.00
C15    C     0.62795   0.19184   0.49999   0.00000  Uiso   1.00
C16    C     0.19184   0.56388   0.49999   0.00000  Uiso   1.00
C17    C     0.43611   0.62795   0.49999   0.00000  Uiso   1.00
C18    C     0.37205   0.80816   0.49999   0.00000  Uiso   1.00
N1     N     0.85475   0.41907   0.49999   0.00000  Uiso   1.00
N2     N     0.58093   0.43569   0.49999   0.00000  Uiso   1.00
N3     N     0.56431   0.14525   0.49999   0.00000  Uiso   1.00
N4     N     0.14525   0.58093   0.49999   0.00000  Uiso   1.00
N5     N     0.41907   0.56431   0.49999   0.00000  Uiso   1.00
N6     N     0.43569   0.85475   0.49999   0.00000  Uiso   1.00
C19    C     0.92750   0.46162   0.49999   0.00000  Uiso   1.00
C20    C     0.53838   0.46588   0.49999   0.00000  Uiso   1.00
C21    C     0.53412   0.07250   0.49999   0.00000  Uiso   1.00
C22    C     0.07250   0.53838   0.49999   0.00000  Uiso   1.00
C23    C     0.46162   0.53412   0.49999   0.00000  Uiso   1.00
C24    C     0.46588   0.92750   0.49999   0.00000  Uiso   1.00
C25    C     0.96689   0.43008   0.49999   0.00000  Uiso   1.00
C26    C     0.56992   0.53681   0.49999   0.00000  Uiso   1.00
C27    C     0.46319   0.03311   0.49999   0.00000  Uiso   1.00
C28    C     0.03311   0.56992   0.49999   0.00000  Uiso   1.00
C29    C     0.43008   0.46319   0.49999   0.00000  Uiso   1.00
C30    C     0.53681   0.96689   0.49999   0.00000  Uiso   1.00
C31    C     0.03703   0.46670   0.49999   0.00000  Uiso   1.00
C32    C     0.53330   0.57033   0.49999   0.00000  Uiso   1.00
C33    C     0.42967   0.96297   0.49999   0.00000  Uiso   1.00
C34    C     0.96297   0.53330   0.49999   0.00000  Uiso   1.00
C35    C     0.46670   0.42967   0.49999   0.00000  Uiso   1.00
C36    C     0.57033   0.03703   0.49999   0.00000  Uiso   1.00
H1     H     0.70084   0.45537   0.49999   0.00000  Uiso   1.00
H2     H     0.54463   0.24547   0.49999   0.00000  Uiso   1.00
H3     H     0.75453   0.29916   0.49999   0.00000  Uiso   1.00
H4     H     0.29916   0.54463   0.49999   0.00000  Uiso   1.00
H5     H     0.45537   0.75453   0.49999   0.00000  Uiso   1.00
H6     H     0.24547   0.70084   0.49999   0.00000  Uiso   1.00
H7     H     0.82039   0.48834   0.49999   0.00000  Uiso   1.00
H8     H     0.51166   0.33205   0.49999   0.00000  Uiso   1.00
H9     H     0.66795   0.17961   0.49999   0.00000  Uiso   1.00
H10    H     0.17961   0.51166   0.49999   0.00000  Uiso   1.00
H11    H     0.48834   0.66795   0.49999   0.00000  Uiso   1.00
H12    H     0.33205   0.82039   0.49999   0.00000  Uiso   1.00
N7     N     0.93921   0.35877   0.49999   0.00000  Uiso   1.00
N8     N     0.64123   0.58044   0.49999   0.00000  Uiso   1.00
N9     N     0.41956   0.06079   0.49999   0.00000  Uiso   1.00
N10    N     0.06079   0.64123   0.49999   0.00000  Uiso   1.00
N11    N     0.35877   0.41956   0.49999   0.00000  Uiso   1.00
N12    N     0.58044   0.93921   0.49999   0.00000  Uiso   1.00
N13    N     0.06687   0.42501   0.49999   0.00000  Uiso   1.00
N14    N     0.57499   0.64186   0.49999   0.00000  Uiso   1.00
N15    N     0.35814   0.93313   0.49999   0.00000  Uiso   1.00
N16    N     0.93313   0.57499   0.49999   0.00000  Uiso   1.00
N17    N     0.42501   0.35814   0.49999   0.00000  Uiso   1.00
N18    N     0.64186   0.06687   0.49999   0.00000  Uiso   1.00
S1     S     0.33714   0.33274   0.49999   0.00000  Uiso   1.00
S2     S     0.66726   0.00440   0.49999   0.00000  Uiso   1.00
S3     S     0.99560   0.66285   0.49999   0.00000  Uiso   1.00
S4     S     0.66285   0.66726   0.49999   0.00000  Uiso   1.00
S5     S     0.33274   0.99560   0.49999   0.00000  Uiso   1.00
S6     S     0.00440   0.33714   0.49999   0.00000  Uiso   1.00
loop_
_geom_bond_atom_site_label_1
_geom_bond_atom_site_label_2
_geom_bond_distance
_geom_bond_site_symmetry_2
_ccdc_geom_bond_type
C1     C13     1.477   .     S
C1     C7      1.402   .     S
C1     C9      1.405   .     S
C2     C8      1.402   .     S
C2     C7      1.405   .     S
C2     C14     1.477   .     S
C3     C8      1.405   .     S
C3     C9      1.402   .     S
C3     C15     1.477   .     S
C4     C12     1.405   .     S
C4     C16     1.477   .     S
C4     C10     1.402   .     S
C5     C11     1.402   .     S
C5     C17     1.477   .     S
C5     C10     1.405   .     S
C6     C18     1.477   .     S
C6     C12     1.402   .     S
C6     C11     1.405   .     S
C7     H1      1.085   .     S
C8     H2      1.085   .     S
C9     H3      1.085   .     S
C10    H4      1.085   .     S
C11    H5      1.085   .     S
C12    H6      1.085   .     S
C13    N1      1.300   .     S
C13    H7      1.078   .     S
C14    N2      1.300   .     S
C14    H8      1.078   .     S
C15    H9      1.078   .     S
C15    N3      1.300   .     S
C16    H10     1.078   .     S
C16    N4      1.300   .     S
C17    H11     1.078   .     S
C17    N5      1.300   .     S
C18    H12     1.078   .     S
C18    N6      1.300   .     S
N1     C19     1.442   .     S
N2     C20     1.442   .     S
N3     C21     1.442   .     S
N4     C22     1.442   .     S
N5     C23     1.442   .     S
N6     C24     1.442   .     S
C19    C25     1.402   .     S
C19    C34     1.414   .     S
C20    C35     1.414   .     S
C20    C26     1.402   .     S
C21    C27     1.402   .     S
C21    C36     1.414   .     S
C22    C28     1.402   .     S
C22    C31     1.414   .     S
C23    C32     1.414   .     S
C23    C29     1.402   .     S
C24    C30     1.402   .     S
C24    C33     1.414   .     S
C25    N7      1.418   .     S
C26    C32     1.384   .     S
C26    N8      1.418   .     S
C27    N9      1.418   .     S
C28    N10     1.418   .     S
C29    N11     1.418   .     S
C29    C35     1.384   .     S
C30    N12     1.418   .     S
C31    N13     1.418   .     S
C32    N14     1.418   .     S
C33    N15     1.418   .     S
C34    N16     1.418   .     S
C35    N17     1.418   .     S
C36    N18     1.418   .     S
N8     S4      1.783   .     S
N11    S1      1.783   .     S
N13    S6      1.784   .     S
N14    S4      1.784   .     S
N15    S5      1.784   .     S
N16    S3      1.784   .     S
N17    S1      1.784   .     S
N18    S2      1.784   .     S
