data_Tp-Azo
_audit_creation_date              2016-12-13
_audit_creation_method            'Materials Studio'
_symmetry_space_group_name_H-M    'P1'
_symmetry_Int_Tables_number       1
_symmetry_cell_setting            triclinic
loop_
_symmetry_equiv_pos_as_xyz
  x,y,z
_cell_length_a                    31.5000
_cell_length_b                    31.5000
_cell_length_c                    3.3000
_cell_angle_alpha                 90.0000
_cell_angle_beta                  90.0000
_cell_angle_gamma                 120.0000
loop_
_atom_site_label
_atom_site_type_symbol
_atom_site_fract_x
_atom_site_fract_y
_atom_site_fract_z
_atom_site_U_iso_or_equiv
_atom_site_adp_type
_atom_site_occupancy
O1     O     0.29695   0.57697   0.00000   0.00000  Uiso   1.00
N1     N     0.38245   0.58505   0.00000   0.00000  Uiso   1.00
C1     C     0.31382   0.61757   0.00000   0.00000  Uiso   1.00
C2     C     0.39342   0.63145   0.00000   0.00000  Uiso   1.00
C3     C     0.41468   0.56990   0.00000   0.00000  Uiso   1.00
C4     C     0.46145   0.59947   0.00000   0.00000  Uiso   1.00
C5     C     0.49111   0.58277   0.00000   0.00000  Uiso   1.00
C6     C     0.47494   0.53664   0.00000   0.00000  Uiso   1.00
C7     C     0.42853   0.50701   0.00000   0.00000  Uiso   1.00
C8     C     0.39878   0.52354   0.00000   0.00000  Uiso   1.00
C9     C     0.36359   0.64675   0.00000   0.00000  Uiso   1.00
H1     H     0.42849   0.65656   0.00000   0.00000  Uiso   1.00
H2     H     0.47589   0.63531   0.00000   0.00000  Uiso   1.00
H3     H     0.34922   0.55946   0.00000   0.00000  Uiso   1.00
H4     H     0.36308   0.50007   0.00000   0.00000  Uiso   1.00
H5     H     0.52692   0.60571   0.00000   0.00000  Uiso   1.00
H6     H     0.41558   0.47120   0.00000   0.00000  Uiso   1.00
O2     O     0.42303   0.71998   0.00000   0.00000  Uiso   1.00
N2     N     0.41495   0.79740   0.00000   0.00000  Uiso   1.00
C10    C     0.38243   0.69625   0.00000   0.00000  Uiso   1.00
C11    C     0.36855   0.76197   0.00000   0.00000  Uiso   1.00
C12    C     0.43010   0.84478   0.00000   0.00000  Uiso   1.00
C13    C     0.40053   0.86198   0.00000   0.00000  Uiso   1.00
C14    C     0.41723   0.90834   0.00000   0.00000  Uiso   1.00
C15    C     0.46336   0.93830   0.00000   0.00000  Uiso   1.00
C16    C     0.49299   0.92152   0.00000   0.00000  Uiso   1.00
C17    C     0.47646   0.87524   0.00000   0.00000  Uiso   1.00
C18    C     0.35325   0.71684   0.00000   0.00000  Uiso   1.00
H7     H     0.34344   0.77193   0.00000   0.00000  Uiso   1.00
H8     H     0.36469   0.84058   0.00000   0.00000  Uiso   1.00
H9     H     0.44054   0.78976   0.00000   0.00000  Uiso   1.00
H10    H     0.49993   0.86301   0.00000   0.00000  Uiso   1.00
H11    H     0.39429   0.92121   0.00000   0.00000  Uiso   1.00
H12    H     0.52880   0.94438   0.00000   0.00000  Uiso   1.00
O3     O     0.28002   0.70305   0.00000   0.00000  Uiso   1.00
N3     N     0.20260   0.61755   0.00000   0.00000  Uiso   1.00
C19    C     0.30375   0.68618   0.00000   0.00000  Uiso   1.00
C20    C     0.23803   0.60658   0.00000   0.00000  Uiso   1.00
C21    C     0.15522   0.58532   0.00000   0.00000  Uiso   1.00
C22    C     0.13802   0.53855   0.00000   0.00000  Uiso   1.00
C23    C     0.09166   0.50889   0.00000   0.00000  Uiso   1.00
C24    C     0.06170   0.52506   0.00000   0.00000  Uiso   1.00
C25    C     0.07848   0.57147   0.00000   0.00000  Uiso   1.00
C26    C     0.12476   0.60122   0.00000   0.00000  Uiso   1.00
C27    C     0.28316   0.63641   0.00000   0.00000  Uiso   1.00
H13    H     0.22807   0.57151   0.00000   0.00000  Uiso   1.00
H14    H     0.15942   0.52411   0.00000   0.00000  Uiso   1.00
H15    H     0.21024   0.65078   0.00000   0.00000  Uiso   1.00
H16    H     0.13699   0.63692   0.00000   0.00000  Uiso   1.00
H17    H     0.07879   0.47308   0.00000   0.00000  Uiso   1.00
H18    H     0.05562   0.58442   0.00000   0.00000  Uiso   1.00
O4     O     0.70305   0.42303   0.00000   0.00000  Uiso   1.00
N4     N     0.61755   0.41495   0.00000   0.00000  Uiso   1.00
C28    C     0.68618   0.38243   0.00000   0.00000  Uiso   1.00
C29    C     0.60658   0.36855   0.00000   0.00000  Uiso   1.00
C30    C     0.58532   0.43010   0.00000   0.00000  Uiso   1.00
C31    C     0.53855   0.40053   0.00000   0.00000  Uiso   1.00
C32    C     0.50889   0.41723   0.00000   0.00000  Uiso   1.00
C33    C     0.52506   0.46336   0.00000   0.00000  Uiso   1.00
C34    C     0.57147   0.49299   0.00000   0.00000  Uiso   1.00
C35    C     0.60122   0.47646   0.00000   0.00000  Uiso   1.00
C36    C     0.63641   0.35325   0.00000   0.00000  Uiso   1.00
H19    H     0.57151   0.34344   0.00000   0.00000  Uiso   1.00
H20    H     0.52411   0.36469   0.00000   0.00000  Uiso   1.00
H21    H     0.65078   0.44054   0.00000   0.00000  Uiso   1.00
H22    H     0.63692   0.49993   0.00000   0.00000  Uiso   1.00
H23    H     0.47308   0.39429   0.00000   0.00000  Uiso   1.00
H24    H     0.58442   0.52880   0.00000   0.00000  Uiso   1.00
O5     O     0.57697   0.28002   0.00000   0.00000  Uiso   1.00
N5     N     0.58505   0.20260   0.00000   0.00000  Uiso   1.00
C37    C     0.61757   0.30375   0.00000   0.00000  Uiso   1.00
C38    C     0.63145   0.23803   0.00000   0.00000  Uiso   1.00
C39    C     0.56990   0.15522   0.00000   0.00000  Uiso   1.00
C40    C     0.59947   0.13802   0.00000   0.00000  Uiso   1.00
C41    C     0.58277   0.09166   0.00000   0.00000  Uiso   1.00
C42    C     0.53664   0.06170   0.00000   0.00000  Uiso   1.00
C43    C     0.50701   0.07848   0.00000   0.00000  Uiso   1.00
C44    C     0.52354   0.12476   0.00000   0.00000  Uiso   1.00
C45    C     0.64675   0.28316   0.00000   0.00000  Uiso   1.00
H25    H     0.65656   0.22807   0.00000   0.00000  Uiso   1.00
H26    H     0.63531   0.15942   0.00000   0.00000  Uiso   1.00
H27    H     0.55946   0.21024   0.00000   0.00000  Uiso   1.00
H28    H     0.50007   0.13699   0.00000   0.00000  Uiso   1.00
H29    H     0.60571   0.07879   0.00000   0.00000  Uiso   1.00
H30    H     0.47120   0.05562   0.00000   0.00000  Uiso   1.00
O6     O     0.71998   0.29695   0.00000   0.00000  Uiso   1.00
N6     N     0.79740   0.38245   0.00000   0.00000  Uiso   1.00
C46    C     0.69625   0.31382   0.00000   0.00000  Uiso   1.00
C47    C     0.76197   0.39342   0.00000   0.00000  Uiso   1.00
C48    C     0.84478   0.41468   0.00000   0.00000  Uiso   1.00
C49    C     0.86198   0.46145   0.00000   0.00000  Uiso   1.00
C50    C     0.90834   0.49111   0.00000   0.00000  Uiso   1.00
C51    C     0.93830   0.47494   0.00000   0.00000  Uiso   1.00
C52    C     0.92152   0.42853   0.00000   0.00000  Uiso   1.00
C53    C     0.87524   0.39878   0.00000   0.00000  Uiso   1.00
C54    C     0.71684   0.36359   0.00000   0.00000  Uiso   1.00
H31    H     0.77193   0.42849   0.00000   0.00000  Uiso   1.00
H32    H     0.84058   0.47589   0.00000   0.00000  Uiso   1.00
H33    H     0.78976   0.34922   0.00000   0.00000  Uiso   1.00
H34    H     0.86301   0.36308   0.00000   0.00000  Uiso   1.00
H35    H     0.92121   0.52692   0.00000   0.00000  Uiso   1.00
H36    H     0.94438   0.41558   0.00000   0.00000  Uiso   1.00
N7     N     0.50627   0.52081   0.00000   0.00000  Uiso   1.00
N8     N     0.47919   0.98546   0.00000   0.00000  Uiso   1.00
N9     N     0.01454   0.49373   0.00000   0.00000  Uiso   1.00
N10    N     0.49373   0.47919   0.00000   0.00000  Uiso   1.00
N11    N     0.52081   0.01454   0.00000   0.00000  Uiso   1.00
N12    N     0.98546   0.50627   0.00000   0.00000  Uiso   1.00
loop_
_geom_bond_atom_site_label_1
_geom_bond_atom_site_label_2
_geom_bond_distance
_geom_bond_site_symmetry_2
_ccdc_geom_bond_type
O1     C1      1.113   .     S
N1     C2      1.323   .     S
N1     H3      0.950   .     S
N1     C3      1.320   .     S
C1     C9      1.364   .     S
C1     C27     1.363   .     S
C2     C9      1.252   .     S
C2     H1      0.986   .     S
C3     C8      1.285   .     S
C3     C4      1.291   .     S
C4     H2      0.984   .     S
C4     C5      1.281   .     S
C5     C6      1.277   .     S
C5     H5      0.990   .     S
C6     N7      1.309   .     S
C6     C7      1.282   .     S
C7     H6      0.989   .     S
C7     C8      1.280   .     S
C8     H4      0.990   .     S
C9     C10     1.363   .     S
O2     C10     1.113   .     S
N2     H9      0.950   .     S
N2     C12     1.320   .     S
N2     C11     1.323   .     S
C10    C18     1.364   .     S
C11    C18     1.252   .     S
C11    H7      0.986   .     S
C12    C17     1.285   .     S
C12    C13     1.291   .     S
C13    C14     1.281   .     S
C13    H8      0.984   .     S
C14    C15     1.277   .     S
C14    H11     0.990   .     S
C15    C16     1.282   .     S
C15    N8      1.309   .     S
C16    H12     0.989   .     S
C16    C17     1.280   .     S
C17    H10     0.990   .     S
C18    C19     1.363   .     S
O3     C19     1.113   .     S
N3     C20     1.323   .     S
N3     C21     1.320   .     S
N3     H15     0.950   .     S
C19    C27     1.364   .     S
C20    C27     1.252   .     S
C20    H13     0.986   .     S
C21    C26     1.285   .     S
C21    C22     1.291   .     S
C22    H14     0.984   .     S
C22    C23     1.281   .     S
C23    H17     0.990   .     S
C23    C24     1.277   .     S
C24    C25     1.282   .     S
C24    N9      1.309   .     S
C25    C26     1.280   .     S
C25    H18     0.989   .     S
C26    H16     0.990   .     S
O4     C28     1.113   .     S
N4     H21     0.950   .     S
N4     C30     1.320   .     S
N4     C29     1.323   .     S
C28    C36     1.364   .     S
C28    C54     1.363   .     S
C29    H19     0.986   .     S
C29    C36     1.252   .     S
C30    C31     1.291   .     S
C30    C35     1.285   .     S
C31    C32     1.281   .     S
C31    H20     0.984   .     S
C32    H23     0.990   .     S
C32    C33     1.277   .     S
C33    C34     1.282   .     S
C33    N10     1.309   .     S
C34    C35     1.280   .     S
C34    H24     0.989   .     S
C35    H22     0.990   .     S
C36    C37     1.363   .     S
O5     C37     1.113   .     S
N5     H27     0.950   .     S
N5     C38     1.323   .     S
N5     C39     1.320   .     S
C37    C45     1.364   .     S
C38    H25     0.986   .     S
C38    C45     1.252   .     S
C39    C40     1.291   .     S
C39    C44     1.285   .     S
C40    H26     0.984   .     S
C40    C41     1.281   .     S
C41    H29     0.990   .     S
C41    C42     1.277   .     S
C42    N11     1.309   .     S
C42    C43     1.282   .     S
C43    C44     1.280   .     S
C43    H30     0.989   .     S
C44    H28     0.990   .     S
C45    C46     1.363   .     S
O6     C46     1.113   .     S
N6     H33     0.950   .     S
N6     C47     1.323   .     S
N6     C48     1.320   .     S
C46    C54     1.364   .     S
C47    H31     0.986   .     S
C47    C54     1.252   .     S
C48    C53     1.285   .     S
C48    C49     1.291   .     S
C49    C50     1.281   .     S
C49    H32     0.984   .     S
C50    C51     1.277   .     S
C50    H35     0.990   .     S
C51    N12     1.309   .     S
C51    C52     1.282   .     S
C52    C53     1.280   .     S
C52    H36     0.989   .     S
C53    H34     0.990   .     S
N7     N10     1.165   .     S
