data_TP-COF
_audit_creation_date              2016-12-13
_audit_creation_method            'Materials Studio'
_symmetry_space_group_name_H-M    'P1'
_symmetry_Int_Tables_number       1
_symmetry_cell_setting            triclinic
loop_
_symmetry_equiv_pos_as_xyz
  x,y,z
_cell_length_a                    37.5412
_cell_length_b                    37.5412
_cell_length_c                    3.3784
_cell_angle_alpha                 90.0000
_cell_angle_beta                  90.0000
_cell_angle_gamma                 120.0000
loop_
_atom_site_label
_atom_site_type_symbol
_atom_site_fract_x
_atom_site_fract_y
_atom_site_fract_z
_atom_site_U_iso_or_equiv
_atom_site_adp_type
_atom_site_occupancy
C1     C     0.29457   0.62814   0.50000   0.00000  Uiso   1.00
C2     C     0.33388   0.59167   0.50000   0.00000  Uiso   1.00
C3     C     0.37097   0.59167   0.50000   0.00000  Uiso   1.00
O1     O     0.37899   0.55964   0.50000   0.00000  Uiso   1.00
C4     C     0.42428   0.51126   0.50000   0.00000  Uiso   1.00
C5     C     0.44513   0.48902   0.50000   0.00000  Uiso   1.00
C6     C     0.42390   0.44477   0.50000   0.00000  Uiso   1.00
C7     C     0.37186   0.66643   0.50000   0.00000  Uiso   1.00
C8     C     0.40833   0.74221   0.50000   0.00000  Uiso   1.00
C9     C     0.40833   0.77930   0.50000   0.00000  Uiso   1.00
O2     O     0.44036   0.81935   0.50000   0.00000  Uiso   1.00
C10    C     0.48874   0.91302   0.50000   0.00000  Uiso   1.00
C11    C     0.51098   0.95611   0.50000   0.00000  Uiso   1.00
C12    C     0.55523   0.97913   0.50000   0.00000  Uiso   1.00
C13    C     0.33357   0.70543   0.50000   0.00000  Uiso   1.00
C14    C     0.25779   0.66612   0.50000   0.00000  Uiso   1.00
C15    C     0.22070   0.62903   0.50000   0.00000  Uiso   1.00
O3     O     0.18065   0.62101   0.50000   0.00000  Uiso   1.00
C16    C     0.08698   0.57572   0.50000   0.00000  Uiso   1.00
C17    C     0.04389   0.55487   0.50000   0.00000  Uiso   1.00
C18    C     0.02087   0.57610   0.50000   0.00000  Uiso   1.00
C19    C     0.70543   0.37186   0.50000   0.00000  Uiso   1.00
C20    C     0.66612   0.40833   0.50000   0.00000  Uiso   1.00
C21    C     0.62903   0.40833   0.50000   0.00000  Uiso   1.00
O4     O     0.62101   0.44036   0.50000   0.00000  Uiso   1.00
C22    C     0.57572   0.48874   0.50000   0.00000  Uiso   1.00
C23    C     0.55487   0.51098   0.50000   0.00000  Uiso   1.00
C24    C     0.57610   0.55523   0.50000   0.00000  Uiso   1.00
C25    C     0.62814   0.33357   0.50000   0.00000  Uiso   1.00
C26    C     0.59167   0.25779   0.50000   0.00000  Uiso   1.00
C27    C     0.59167   0.22070   0.50000   0.00000  Uiso   1.00
O5     O     0.55964   0.18065   0.50000   0.00000  Uiso   1.00
C28    C     0.51126   0.08698   0.50000   0.00000  Uiso   1.00
C29    C     0.48902   0.04389   0.50000   0.00000  Uiso   1.00
C30    C     0.44477   0.02087   0.50000   0.00000  Uiso   1.00
C31    C     0.66643   0.29457   0.50000   0.00000  Uiso   1.00
C32    C     0.74221   0.33388   0.50000   0.00000  Uiso   1.00
C33    C     0.77930   0.37097   0.50000   0.00000  Uiso   1.00
O6     O     0.81935   0.37899   0.50000   0.00000  Uiso   1.00
C34    C     0.91302   0.42428   0.50000   0.00000  Uiso   1.00
C35    C     0.95611   0.44513   0.50000   0.00000  Uiso   1.00
C36    C     0.97913   0.42390   0.50000   0.00000  Uiso   1.00
C37    C     0.62814   0.29457   0.50000   0.00000  Uiso   1.00
C38    C     0.59167   0.33388   0.50000   0.00000  Uiso   1.00
C39    C     0.59167   0.37097   0.50000   0.00000  Uiso   1.00
O7     O     0.55964   0.37899   0.50000   0.00000  Uiso   1.00
C40    C     0.51126   0.42428   0.50000   0.00000  Uiso   1.00
C41    C     0.48902   0.44513   0.50000   0.00000  Uiso   1.00
C42    C     0.44477   0.42390   0.50000   0.00000  Uiso   1.00
C43    C     0.66643   0.37186   0.50000   0.00000  Uiso   1.00
C44    C     0.74221   0.40833   0.50000   0.00000  Uiso   1.00
C45    C     0.77930   0.40833   0.50000   0.00000  Uiso   1.00
O8     O     0.81935   0.44036   0.50000   0.00000  Uiso   1.00
C46    C     0.91302   0.48874   0.50000   0.00000  Uiso   1.00
C47    C     0.95611   0.51098   0.50000   0.00000  Uiso   1.00
C48    C     0.97913   0.55523   0.50000   0.00000  Uiso   1.00
C49    C     0.70543   0.33357   0.50000   0.00000  Uiso   1.00
C50    C     0.66612   0.25779   0.50000   0.00000  Uiso   1.00
C51    C     0.62903   0.22070   0.50000   0.00000  Uiso   1.00
O9     O     0.62101   0.18065   0.50000   0.00000  Uiso   1.00
C52    C     0.57572   0.08698   0.50000   0.00000  Uiso   1.00
C53    C     0.55487   0.04389   0.50000   0.00000  Uiso   1.00
C54    C     0.57610   0.02087   0.50000   0.00000  Uiso   1.00
C55    C     0.37186   0.70543   0.50000   0.00000  Uiso   1.00
C56    C     0.40833   0.66612   0.50000   0.00000  Uiso   1.00
C57    C     0.40833   0.62903   0.50000   0.00000  Uiso   1.00
O10    O     0.44036   0.62101   0.50000   0.00000  Uiso   1.00
C58    C     0.48874   0.57572   0.50000   0.00000  Uiso   1.00
C59    C     0.51098   0.55487   0.50000   0.00000  Uiso   1.00
C60    C     0.55523   0.57610   0.50000   0.00000  Uiso   1.00
C61    C     0.33357   0.62814   0.50000   0.00000  Uiso   1.00
C62    C     0.25779   0.59167   0.50000   0.00000  Uiso   1.00
C63    C     0.22070   0.59167   0.50000   0.00000  Uiso   1.00
O11    O     0.18065   0.55964   0.50000   0.00000  Uiso   1.00
C64    C     0.08698   0.51126   0.50000   0.00000  Uiso   1.00
C65    C     0.04389   0.48902   0.50000   0.00000  Uiso   1.00
C66    C     0.02087   0.44477   0.50000   0.00000  Uiso   1.00
C67    C     0.29457   0.66643   0.50000   0.00000  Uiso   1.00
C68    C     0.33388   0.74221   0.50000   0.00000  Uiso   1.00
C69    C     0.37097   0.77930   0.50000   0.00000  Uiso   1.00
O12    O     0.37899   0.81935   0.50000   0.00000  Uiso   1.00
C70    C     0.42428   0.91302   0.50000   0.00000  Uiso   1.00
C71    C     0.44513   0.95611   0.50000   0.00000  Uiso   1.00
C72    C     0.42390   0.97913   0.50000   0.00000  Uiso   1.00
C73    C     0.44552   0.55448   0.50000   0.00000  Uiso   1.00
C74    C     0.48905   0.51095   0.50000   0.00000  Uiso   1.00
B1     B     0.42181   0.57819   0.50000   0.00000  Uiso   1.00
C75    C     0.44552   0.89104   0.50000   0.00000  Uiso   1.00
C76    C     0.48905   0.97810   0.50000   0.00000  Uiso   1.00
B2     B     0.42181   0.84362   0.50000   0.00000  Uiso   1.00
C77    C     0.10896   0.55448   0.50000   0.00000  Uiso   1.00
C78    C     0.02190   0.51095   0.50000   0.00000  Uiso   1.00
B3     B     0.15638   0.57819   0.50000   0.00000  Uiso   1.00
C79    C     0.55448   0.44552   0.50000   0.00000  Uiso   1.00
C80    C     0.51095   0.48905   0.50000   0.00000  Uiso   1.00
B4     B     0.57819   0.42181   0.50000   0.00000  Uiso   1.00
C81    C     0.55448   0.10896   0.50000   0.00000  Uiso   1.00
C82    C     0.51095   0.02190   0.50000   0.00000  Uiso   1.00
B5     B     0.57819   0.15638   0.50000   0.00000  Uiso   1.00
C83    C     0.89104   0.44552   0.50000   0.00000  Uiso   1.00
C84    C     0.97810   0.48905   0.50000   0.00000  Uiso   1.00
B6     B     0.84362   0.42181   0.50000   0.00000  Uiso   1.00
H1     H     0.30364   0.56118   0.50000   0.00000  Uiso   1.00
H2     H     0.38922   0.49430   0.50000   0.00000  Uiso   1.00
H3     H     0.38885   0.42653   0.50000   0.00000  Uiso   1.00
H4     H     0.43882   0.74247   0.50000   0.00000  Uiso   1.00
H5     H     0.50570   0.89493   0.50000   0.00000  Uiso   1.00
H6     H     0.57347   0.96231   0.50000   0.00000  Uiso   1.00
H7     H     0.25753   0.69636   0.50000   0.00000  Uiso   1.00
H8     H     0.10507   0.61078   0.50000   0.00000  Uiso   1.00
H9     H     0.03769   0.61115   0.50000   0.00000  Uiso   1.00
H10    H     0.69636   0.43882   0.50000   0.00000  Uiso   1.00
H11    H     0.61078   0.50570   0.50000   0.00000  Uiso   1.00
H12    H     0.61115   0.57347   0.50000   0.00000  Uiso   1.00
H13    H     0.56118   0.25753   0.50000   0.00000  Uiso   1.00
H14    H     0.49430   0.10507   0.50000   0.00000  Uiso   1.00
H15    H     0.42653   0.03769   0.50000   0.00000  Uiso   1.00
H16    H     0.74247   0.30364   0.50000   0.00000  Uiso   1.00
H17    H     0.89493   0.38922   0.50000   0.00000  Uiso   1.00
H18    H     0.96231   0.38885   0.50000   0.00000  Uiso   1.00
H19    H     0.56118   0.30364   0.50000   0.00000  Uiso   1.00
H20    H     0.49430   0.38922   0.50000   0.00000  Uiso   1.00
H21    H     0.42653   0.38885   0.50000   0.00000  Uiso   1.00
H22    H     0.74247   0.43882   0.50000   0.00000  Uiso   1.00
H23    H     0.89493   0.50570   0.50000   0.00000  Uiso   1.00
H24    H     0.96231   0.57347   0.50000   0.00000  Uiso   1.00
H25    H     0.69636   0.25753   0.50000   0.00000  Uiso   1.00
H26    H     0.61078   0.10507   0.50000   0.00000  Uiso   1.00
H27    H     0.61115   0.03769   0.50000   0.00000  Uiso   1.00
H28    H     0.43882   0.69636   0.50000   0.00000  Uiso   1.00
H29    H     0.50570   0.61078   0.50000   0.00000  Uiso   1.00
H30    H     0.57347   0.61115   0.50000   0.00000  Uiso   1.00
H31    H     0.25753   0.56118   0.50000   0.00000  Uiso   1.00
H32    H     0.10507   0.49430   0.50000   0.00000  Uiso   1.00
H33    H     0.03769   0.42653   0.50000   0.00000  Uiso   1.00
H34    H     0.30364   0.74247   0.50000   0.00000  Uiso   1.00
H35    H     0.38922   0.89493   0.50000   0.00000  Uiso   1.00
H36    H     0.38885   0.96231   0.50000   0.00000  Uiso   1.00
loop_
_geom_bond_atom_site_label_1
_geom_bond_atom_site_label_2
_geom_bond_distance
_geom_bond_site_symmetry_2
_ccdc_geom_bond_type
C1     C61     1.464   .     S
C1     C67     1.437   .     S
C1     C62     1.375   .     S
C2     H1      1.140   .     S
C2     C3      1.392   .     S
C2     C61     1.375   .     S
C3     O1      1.378   .     S
C3     C57     1.403   .     S
O1     B1      1.396   .     S
C4     H2      1.140   .     S
C4     C73     1.405   .     S
C4     C5      1.401   .     S
C5     C6      1.439   .     S
C5     C74     1.428   .     S
C6     C42     1.357   .     S
C6     H3      1.140   .     S
C7     C55     1.464   .     S
C7     C56     1.375   .     S
C7     C61     1.437   .     S
C8     H4      1.140   .     S
C8     C9      1.392   .     S
C8     C55     1.375   .     S
C9     C69     1.403   .     S
C9     O2      1.378   .     S
O2     B2      1.396   .     S
C10    C75     1.405   .     S
C10    H5      1.140   .     S
C10    C11     1.401   .     S
C11    C76     1.428   .     S
C11    C12     1.439   .     S
C12    H6      1.140   .     S
C13    C67     1.464   .     S
C13    C55     1.437   .     S
C13    C68     1.375   .     S
C14    H7      1.140   .     S
C14    C67     1.375   .     S
C14    C15     1.392   .     S
C15    O3      1.378   .     S
C15    C63     1.403   .     S
O3     B3      1.396   .     S
C16    C17     1.401   .     S
C16    C77     1.405   .     S
C16    H8      1.140   .     S
C17    C18     1.439   .     S
C17    C78     1.428   .     S
C18    H9      1.140   .     S
C19    C49     1.437   .     S
C19    C43     1.464   .     S
C19    C44     1.375   .     S
C20    C21     1.392   .     S
C20    H10     1.140   .     S
C20    C43     1.375   .     S
C21    O4      1.378   .     S
C21    C39     1.403   .     S
O4     B4      1.396   .     S
C22    C79     1.405   .     S
C22    H11     1.140   .     S
C22    C23     1.401   .     S
C23    C24     1.439   .     S
C23    C80     1.428   .     S
C24    H12     1.140   .     S
C24    C60     1.357   .     S
C25    C38     1.375   .     S
C25    C43     1.437   .     S
C25    C37     1.464   .     S
C26    H13     1.140   .     S
C26    C27     1.392   .     S
C26    C37     1.375   .     S
C27    C51     1.403   .     S
C27    O5      1.378   .     S
O5     B5      1.396   .     S
C28    H14     1.140   .     S
C28    C81     1.405   .     S
C28    C29     1.401   .     S
C29    C30     1.439   .     S
C29    C82     1.428   .     S
C30    H15     1.140   .     S
C31    C37     1.437   .     S
C31    C49     1.464   .     S
C31    C50     1.375   .     S
C32    C33     1.392   .     S
C32    C49     1.375   .     S
C32    H16     1.140   .     S
C33    O6      1.378   .     S
C33    C45     1.403   .     S
O6     B6      1.396   .     S
C34    H17     1.140   .     S
C34    C83     1.405   .     S
C34    C35     1.401   .     S
C35    C84     1.428   .     S
C35    C36     1.439   .     S
C36    H18     1.140   .     S
C38    C39     1.392   .     S
C38    H19     1.140   .     S
C39    O7      1.378   .     S
O7     B4      1.396   .     S
C40    H20     1.140   .     S
C40    C41     1.401   .     S
C40    C79     1.405   .     S
C41    C80     1.428   .     S
C41    C42     1.439   .     S
C42    H21     1.140   .     S
C44    C45     1.392   .     S
C44    H22     1.140   .     S
C45    O8      1.378   .     S
O8     B6      1.396   .     S
C46    C83     1.405   .     S
C46    C47     1.401   .     S
C46    H23     1.140   .     S
C47    C48     1.439   .     S
C47    C84     1.428   .     S
C48    H24     1.140   .     S
C50    C51     1.392   .     S
C50    H25     1.140   .     S
C51    O9      1.378   .     S
O9     B5      1.396   .     S
C52    H26     1.140   .     S
C52    C81     1.405   .     S
C52    C53     1.401   .     S
C53    C54     1.439   .     S
C53    C82     1.428   .     S
C54    H27     1.140   .     S
C56    H28     1.140   .     S
C56    C57     1.392   .     S
C57    O10     1.378   .     S
O10    B1      1.396   .     S
C58    C59     1.401   .     S
C58    C73     1.405   .     S
C58    H29     1.140   .     S
C59    C60     1.439   .     S
C59    C74     1.428   .     S
C60    H30     1.140   .     S
C62    H31     1.140   .     S
C62    C63     1.392   .     S
C63    O11     1.378   .     S
O11    B3      1.396   .     S
C64    H32     1.140   .     S
C64    C77     1.405   .     S
C64    C65     1.401   .     S
C65    C66     1.439   .     S
C65    C78     1.428   .     S
C66    H33     1.140   .     S
C68    H34     1.140   .     S
C68    C69     1.392   .     S
C69    O12     1.378   .     S
O12    B2      1.396   .     S
C70    H35     1.140   .     S
C70    C75     1.405   .     S
C70    C71     1.401   .     S
C71    C72     1.439   .     S
C71    C76     1.428   .     S
C72    H36     1.140   .     S
C73    B1      1.542   .     S
C74    C80     1.424   .     S
C75    B2      1.542   .     S
C77    B3      1.542   .     S
C79    B4      1.542   .     S
C81    B5      1.542   .     S
C83    B6      1.542   .     S
