data_Tp-Por-COF-AA
_audit_creation_date              2016-12-13
_audit_creation_method            'Materials Studio'
_symmetry_space_group_name_H-M    'P1'
_symmetry_Int_Tables_number       1
_symmetry_cell_setting            triclinic
loop_
_symmetry_equiv_pos_as_xyz
  x,y,z
_cell_length_a                    52.2000
_cell_length_b                    52.2000
_cell_length_c                    3.8000
_cell_angle_alpha                 90.0000
_cell_angle_beta                  90.0000
_cell_angle_gamma                 120.0000
loop_
_atom_site_label
_atom_site_type_symbol
_atom_site_fract_x
_atom_site_fract_y
_atom_site_fract_z
_atom_site_U_iso_or_equiv
_atom_site_adp_type
_atom_site_occupancy
C1     C     0.91955   0.94724  -0.01394   0.00000  Uiso   1.00
N1     N     0.69905   0.87622  -0.01391   0.00000  Uiso   1.00
C2     C     0.72863   0.88841   0.02061   0.00000  Uiso   1.00
C3     C     0.74200   0.91883   0.06597   0.00000  Uiso   1.00
C4     C     0.71977   0.92569   0.05331   0.00000  Uiso   1.00
C5     C     0.82388   0.93150  -0.21349   0.00000  Uiso   1.00
C6     C     0.79300   0.91588  -0.21168   0.00000  Uiso   1.00
C7     C     0.94570   0.00046  -0.03098   0.00000  Uiso   1.00
C8     C     0.97289   0.00079  -0.02418   0.00000  Uiso   1.00
C9     C     0.41390   0.72073   0.03347   0.00000  Uiso   1.00
N2     N     0.63444   0.79159   0.03275   0.00000  Uiso   1.00
C10    C     0.63945   0.76894   0.08877   0.00000  Uiso   1.00
C11    C     0.60489   0.77964   0.06862   0.00000  Uiso   1.00
C12    C     0.59155   0.74965   0.15129   0.00000  Uiso   1.00
C13    C     0.61379   0.74277   0.16147   0.00000  Uiso   1.00
C14    C     0.50943   0.73532  -0.15931   0.00000  Uiso   1.00
C15    C     0.54032   0.75089  -0.16343   0.00000  Uiso   1.00
O1     O     0.44211   0.74513   0.04853   0.00000  Uiso   1.00
C16    C     0.38758   0.66751   0.00825   0.00000  Uiso   1.00
C17    C     0.36041   0.66725   0.02005   0.00000  Uiso   1.00
C18    C     0.41387   0.69447   0.01038   0.00000  Uiso   1.00
C19    C     0.63943   0.87159  -0.06308   0.00000  Uiso   1.00
C20    C     0.60486   0.82636  -0.03735   0.00000  Uiso   1.00
C21    C     0.59148   0.84300  -0.11765   0.00000  Uiso   1.00
C22    C     0.61372   0.87210  -0.13138   0.00000  Uiso   1.00
C23    C     0.50951   0.77532   0.19948   0.00000  Uiso   1.00
C24    C     0.54041   0.79061   0.20144   0.00000  Uiso   1.00
C25    C     0.38765   0.72147   0.03575   0.00000  Uiso   1.00
C26    C     0.36045   0.69460   0.02411   0.00000  Uiso   1.00
C27    C     0.91949   0.97347  -0.03042   0.00000  Uiso   1.00
N3     N     0.69904   0.82386   0.02666   0.00000  Uiso   1.00
C28    C     0.69399   0.79595   0.00920   0.00000  Uiso   1.00
C29    C     0.72858   0.84119  -0.01499   0.00000  Uiso   1.00
C30    C     0.74185   0.82408  -0.06292   0.00000  Uiso   1.00
C31    C     0.71962   0.79500  -0.04449   0.00000  Uiso   1.00
C32    C     0.82426   0.89354   0.18900   0.00000  Uiso   1.00
C33    C     0.79337   0.87827   0.19712   0.00000  Uiso   1.00
O2     O     0.89131   0.96966  -0.04227   0.00000  Uiso   1.00
C34    C     0.94583   0.94658  -0.01434   0.00000  Uiso   1.00
C35    C     0.66674   0.89724  -0.03767   0.00000  Uiso   1.00
C36    C     0.66672   0.77056   0.05815   0.00000  Uiso   1.00
C37    C     0.83951   0.92024  -0.01474   0.00000  Uiso   1.00
B1     B     0.87376   0.93740  -0.01955   0.00000  Uiso   1.00
C38    C     0.58950   0.79531   0.01666   0.00000  Uiso   1.00
C39    C     0.49401   0.74759   0.02058   0.00000  Uiso   1.00
C40    C     0.55629   0.77871   0.01841   0.00000  Uiso   1.00
B2     B     0.45971   0.73047   0.02151   0.00000  Uiso   1.00
C41    C     0.69406   0.89911   0.00000   0.00000  Uiso   1.00
O3     O     0.89142   0.92280   0.00000   0.00000  Uiso   1.00
N4     N     0.63444   0.84395   0.00000   0.00000  Uiso   1.00
O4     O     0.44205   0.69821   0.00000   0.00000  Uiso   1.00
C42    C     0.74400   0.87249   0.00000   0.00000  Uiso   1.00
C43    C     0.77723   0.88910   0.00000   0.00000  Uiso   1.00
C44    C     0.97284   0.97363  -0.02418   0.00000  Uiso   1.00
H1     H     0.38777   0.64578  -0.00286   0.00000  Uiso   1.00
H2     H     0.38825   0.74359   0.04691   0.00000  Uiso   1.00
H3     H     0.21501   0.71195   0.33961   0.00000  Uiso   1.00
H4     H     0.18748   0.74054   0.34805   0.00000  Uiso   1.00
H5     H     0.28695   0.78372  -0.29859   0.00000  Uiso   1.00
H6     H     0.25844   0.81132  -0.31081   0.00000  Uiso   1.00
H7     H     0.76697   0.93263   0.10369   0.00000  Uiso   1.00
H8     H     0.72523   0.94962   0.08511   0.00000  Uiso   1.00
H9     H     0.83631   0.95286  -0.37122   0.00000  Uiso   1.00
H10    H     0.78021   0.92406  -0.37519   0.00000  Uiso   1.00
H11    H     0.94544   0.02216  -0.03684   0.00000  Uiso   1.00
H12    H     0.56663   0.73619   0.19496   0.00000  Uiso   1.00
H13    H     0.61472   0.72174   0.21326   0.00000  Uiso   1.00
H14    H     0.56651   0.83155  -0.15727   0.00000  Uiso   1.00
H15    H     0.60822   0.89023  -0.19040   0.00000  Uiso   1.00
H16    H     0.76675   0.83520  -0.10655   0.00000  Uiso   1.00
H17    H     0.71874   0.77278  -0.06359   0.00000  Uiso   1.00
H18    H     0.83704   0.88479   0.34269   0.00000  Uiso   1.00
H19    H     0.78095   0.85721   0.36010   0.00000  Uiso   1.00
H20    H     0.94529   0.92448  -0.00681   0.00000  Uiso   1.00
H21    H     0.66821   0.91977  -0.04719   0.00000  Uiso   1.00
H22    H     0.66824   0.74955   0.07272   0.00000  Uiso   1.00
C45    C     0.05276   0.97231  -0.01394   0.00000  Uiso   1.00
N5     N     0.12378   0.82283  -0.01391   0.00000  Uiso   1.00
C46    C     0.11159   0.84022   0.02061   0.00000  Uiso   1.00
C47    C     0.08117   0.82317   0.06597   0.00000  Uiso   1.00
C48    C     0.07431   0.79408   0.05331   0.00000  Uiso   1.00
C49    C     0.06850   0.89238  -0.21349   0.00000  Uiso   1.00
C50    C     0.08412   0.87712  -0.21168   0.00000  Uiso   1.00
C51    C     0.99954   0.94524  -0.03098   0.00000  Uiso   1.00
C52    C     0.99921   0.97210  -0.02418   0.00000  Uiso   1.00
C53    C     0.27927   0.69317   0.03347   0.00000  Uiso   1.00
N6     N     0.20841   0.84285   0.03275   0.00000  Uiso   1.00
C54    C     0.23106   0.87051   0.08877   0.00000  Uiso   1.00
C55    C     0.22036   0.82525   0.06862   0.00000  Uiso   1.00
C56    C     0.25035   0.84190   0.15129   0.00000  Uiso   1.00
C57    C     0.25723   0.87102   0.16147   0.00000  Uiso   1.00
C58    C     0.26468   0.77411  -0.15931   0.00000  Uiso   1.00
C59    C     0.24911   0.78943  -0.16343   0.00000  Uiso   1.00
O5     O     0.25487   0.69698   0.04853   0.00000  Uiso   1.00
C60    C     0.33249   0.72007   0.00825   0.00000  Uiso   1.00
C61    C     0.33275   0.69316   0.02005   0.00000  Uiso   1.00
C62    C     0.30553   0.71940   0.01038   0.00000  Uiso   1.00
C63    C     0.12841   0.76784  -0.06308   0.00000  Uiso   1.00
C64    C     0.17364   0.77850  -0.03735   0.00000  Uiso   1.00
C65    C     0.15700   0.74848  -0.11765   0.00000  Uiso   1.00
C66    C     0.12790   0.74162  -0.13138   0.00000  Uiso   1.00
C67    C     0.22468   0.73419   0.19948   0.00000  Uiso   1.00
C68    C     0.20939   0.74980   0.20144   0.00000  Uiso   1.00
C69    C     0.27853   0.66618   0.03575   0.00000  Uiso   1.00
C70    C     0.30540   0.66585   0.02411   0.00000  Uiso   1.00
C71    C     0.02653   0.94602  -0.03042   0.00000  Uiso   1.00
N7     N     0.17614   0.87518   0.02666   0.00000  Uiso   1.00
C72    C     0.20405   0.89804   0.00920   0.00000  Uiso   1.00
C73    C     0.15881   0.88739  -0.01499   0.00000  Uiso   1.00
C74    C     0.17592   0.91777  -0.06292   0.00000  Uiso   1.00
C75    C     0.20500   0.92462  -0.04449   0.00000  Uiso   1.00
C76    C     0.10646   0.93072   0.18900   0.00000  Uiso   1.00
C77    C     0.12173   0.91510   0.19712   0.00000  Uiso   1.00
O6     O     0.03034   0.92165  -0.04227   0.00000  Uiso   1.00
C78    C     0.05342   0.99925  -0.01434   0.00000  Uiso   1.00
C79    C     0.10276   0.76950  -0.03767   0.00000  Uiso   1.00
C80    C     0.22944   0.89616   0.05815   0.00000  Uiso   1.00
C81    C     0.07976   0.91927  -0.01474   0.00000  Uiso   1.00
B3     B     0.06260   0.93636  -0.01955   0.00000  Uiso   1.00
C82    C     0.20469   0.79419   0.01666   0.00000  Uiso   1.00
C83    C     0.25241   0.74642   0.02058   0.00000  Uiso   1.00
C84    C     0.22129   0.77758   0.01841   0.00000  Uiso   1.00
B4     B     0.26953   0.72924   0.02151   0.00000  Uiso   1.00
C85    C     0.10089   0.79495   0.00000   0.00000  Uiso   1.00
O7     O     0.07720   0.96862   0.00000   0.00000  Uiso   1.00
N8     N     0.15605   0.79049   0.00000   0.00000  Uiso   1.00
O8     O     0.30179   0.74384   0.00000   0.00000  Uiso   1.00
C86    C     0.12751   0.87151   0.00000   0.00000  Uiso   1.00
C87    C     0.11090   0.88813   0.00000   0.00000  Uiso   1.00
C88    C     0.02637   0.99921  -0.02418   0.00000  Uiso   1.00
H23    H     0.35422   0.74199  -0.00286   0.00000  Uiso   1.00
H24    H     0.25641   0.64466   0.04691   0.00000  Uiso   1.00
H25    H     0.28805   0.50305   0.33961   0.00000  Uiso   1.00
H26    H     0.25946   0.44694   0.34805   0.00000  Uiso   1.00
H27    H     0.21628   0.50322  -0.29859   0.00000  Uiso   1.00
H28    H     0.18868   0.44712  -0.31081   0.00000  Uiso   1.00
H29    H     0.06737   0.83434   0.10369   0.00000  Uiso   1.00
H30    H     0.05038   0.77562   0.08511   0.00000  Uiso   1.00
H31    H     0.04714   0.88345  -0.37122   0.00000  Uiso   1.00
H32    H     0.07594   0.85614  -0.37519   0.00000  Uiso   1.00
H33    H     0.97784   0.92328  -0.03684   0.00000  Uiso   1.00
H34    H     0.26381   0.83043   0.19496   0.00000  Uiso   1.00
H35    H     0.27826   0.89298   0.21326   0.00000  Uiso   1.00
H36    H     0.16845   0.73496  -0.15727   0.00000  Uiso   1.00
H37    H     0.10977   0.71799  -0.19040   0.00000  Uiso   1.00
H38    H     0.16480   0.93155  -0.10655   0.00000  Uiso   1.00
H39    H     0.22722   0.94596  -0.06359   0.00000  Uiso   1.00
H40    H     0.11521   0.95225   0.34269   0.00000  Uiso   1.00
H41    H     0.14279   0.92374   0.36010   0.00000  Uiso   1.00
H42    H     0.07552   0.02081  -0.00681   0.00000  Uiso   1.00
H43    H     0.08023   0.74845  -0.04719   0.00000  Uiso   1.00
H44    H     0.25045   0.91869   0.07272   0.00000  Uiso   1.00
C89    C     0.02769   0.08045  -0.01394   0.00000  Uiso   1.00
N9     N     0.17717   0.30095  -0.01391   0.00000  Uiso   1.00
C90    C     0.15978   0.27137   0.02061   0.00000  Uiso   1.00
C91    C     0.17683   0.25800   0.06597   0.00000  Uiso   1.00
C92    C     0.20592   0.28023   0.05331   0.00000  Uiso   1.00
C93    C     0.10762   0.17612  -0.21349   0.00000  Uiso   1.00
C94    C     0.12288   0.20700  -0.21168   0.00000  Uiso   1.00
C95    C     0.05476   0.05430  -0.03098   0.00000  Uiso   1.00
C96    C     0.02790   0.02711  -0.02418   0.00000  Uiso   1.00
C97    C     0.30683   0.58610   0.03347   0.00000  Uiso   1.00
N10    N     0.15715   0.36556   0.03275   0.00000  Uiso   1.00
C98    C     0.12949   0.36055   0.08877   0.00000  Uiso   1.00
C99    C     0.17475   0.39511   0.06862   0.00000  Uiso   1.00
C100   C     0.15810   0.40845   0.15129   0.00000  Uiso   1.00
C101   C     0.12898   0.38621   0.16147   0.00000  Uiso   1.00
C102   C     0.22589   0.49057  -0.15931   0.00000  Uiso   1.00
C103   C     0.21057   0.45968  -0.16343   0.00000  Uiso   1.00
O9     O     0.30302   0.55789   0.04853   0.00000  Uiso   1.00
C104   C     0.27993   0.61242   0.00825   0.00000  Uiso   1.00
C105   C     0.30684   0.63959   0.02005   0.00000  Uiso   1.00
C106   C     0.28060   0.58613   0.01038   0.00000  Uiso   1.00
C107   C     0.23216   0.36057  -0.06308   0.00000  Uiso   1.00
C108   C     0.22150   0.39514  -0.03735   0.00000  Uiso   1.00
C109   C     0.25152   0.40852  -0.11765   0.00000  Uiso   1.00
C110   C     0.25838   0.38628  -0.13138   0.00000  Uiso   1.00
C111   C     0.26581   0.49049   0.19948   0.00000  Uiso   1.00
C112   C     0.25020   0.45959   0.20144   0.00000  Uiso   1.00
C113   C     0.33382   0.61235   0.03575   0.00000  Uiso   1.00
C114   C     0.33415   0.63955   0.02411   0.00000  Uiso   1.00
C115   C     0.05398   0.08051  -0.03042   0.00000  Uiso   1.00
N11    N     0.12482   0.30096   0.02666   0.00000  Uiso   1.00
C116   C     0.10196   0.30601   0.00920   0.00000  Uiso   1.00
C117   C     0.11261   0.27142  -0.01499   0.00000  Uiso   1.00
C118   C     0.08223   0.25815  -0.06292   0.00000  Uiso   1.00
C119   C     0.07538   0.28038  -0.04449   0.00000  Uiso   1.00
C120   C     0.06928   0.17574   0.18900   0.00000  Uiso   1.00
C121   C     0.08490   0.20663   0.19712   0.00000  Uiso   1.00
O10    O     0.07835   0.10869  -0.04227   0.00000  Uiso   1.00
C122   C     0.00075   0.05417  -0.01434   0.00000  Uiso   1.00
C123   C     0.23050   0.33326  -0.03767   0.00000  Uiso   1.00
C124   C     0.10384   0.33328   0.05815   0.00000  Uiso   1.00
C125   C     0.08073   0.16049  -0.01474   0.00000  Uiso   1.00
B5     B     0.06364   0.12624  -0.01955   0.00000  Uiso   1.00
C126   C     0.20581   0.41050   0.01666   0.00000  Uiso   1.00
C127   C     0.25358   0.50599   0.02058   0.00000  Uiso   1.00
C128   C     0.22242   0.44371   0.01841   0.00000  Uiso   1.00
B6     B     0.27076   0.54029   0.02151   0.00000  Uiso   1.00
C129   C     0.20505   0.30594   0.00000   0.00000  Uiso   1.00
O11    O     0.03138   0.10858   0.00000   0.00000  Uiso   1.00
N12    N     0.20951   0.36556   0.00000   0.00000  Uiso   1.00
O12    O     0.25616   0.55795   0.00000   0.00000  Uiso   1.00
C130   C     0.12849   0.25600   0.00000   0.00000  Uiso   1.00
C131   C     0.11187   0.22277   0.00000   0.00000  Uiso   1.00
C132   C     0.00079   0.02716  -0.02418   0.00000  Uiso   1.00
H45    H     0.25801   0.61223  -0.00286   0.00000  Uiso   1.00
H46    H     0.35534   0.61175   0.04691   0.00000  Uiso   1.00
H47    H     0.49695   0.78499   0.33961   0.00000  Uiso   1.00
H48    H     0.55306   0.81252   0.34805   0.00000  Uiso   1.00
H49    H     0.49678   0.71305  -0.29859   0.00000  Uiso   1.00
H50    H     0.55288   0.74156  -0.31081   0.00000  Uiso   1.00
H51    H     0.16566   0.23303   0.10369   0.00000  Uiso   1.00
H52    H     0.22438   0.27477   0.08511   0.00000  Uiso   1.00
H53    H     0.11655   0.16369  -0.37122   0.00000  Uiso   1.00
H54    H     0.14386   0.21979  -0.37519   0.00000  Uiso   1.00
H55    H     0.07672   0.05456  -0.03684   0.00000  Uiso   1.00
H56    H     0.16957   0.43337   0.19496   0.00000  Uiso   1.00
H57    H     0.10702   0.38528   0.21326   0.00000  Uiso   1.00
H58    H     0.26504   0.43349  -0.15727   0.00000  Uiso   1.00
H59    H     0.28201   0.39178  -0.19040   0.00000  Uiso   1.00
H60    H     0.06845   0.23325  -0.10655   0.00000  Uiso   1.00
H61    H     0.05404   0.28126  -0.06359   0.00000  Uiso   1.00
H62    H     0.04775   0.16296   0.34269   0.00000  Uiso   1.00
H63    H     0.07626   0.21905   0.36010   0.00000  Uiso   1.00
H64    H     0.97919   0.05471  -0.00681   0.00000  Uiso   1.00
H65    H     0.25155   0.33179  -0.04719   0.00000  Uiso   1.00
H66    H     0.08131   0.33176   0.07272   0.00000  Uiso   1.00
H67    H     0.17205   0.85238   0.06788   0.00000  Uiso   1.00
H68    H     0.16588   0.81424   0.06850   0.00000  Uiso   1.00
H69    H     0.68489   0.85192   0.95496   0.00000  Uiso   1.00
H70    H     0.65319   0.81398  -0.02728   0.00000  Uiso   1.00
H71    H     0.16079   0.34681  -0.02728   0.00000  Uiso   1.00
H72    H     0.16703   0.31511   0.95496   0.00000  Uiso   1.00
loop_
_geom_bond_atom_site_label_1
_geom_bond_atom_site_label_2
_geom_bond_distance
_geom_bond_site_symmetry_2
_ccdc_geom_bond_type
C1     C34     1.389   .     S
C1     C27     1.372   .     S
C1     O3      1.383   .     S
N1     C41     1.345   .     S
N1     C2      1.350   .     S
C2     C42     1.417   .     S
C2     C3      1.389   .     S
C3     H7      1.140   .     S
C3     C4      1.376   .     S
C4     H8      1.140   .     S
C4     C41     1.380   .     S
C5     C6      1.396   .     S
C5     C37     1.436   .     S
C5     H9      1.140   .     S
C6     H10     1.140   .     S
C6     C43     1.459   .     S
C7     H11     1.140   .     S
C7     C8      1.411   .     S
C9     C25     1.390   .     S
C9     O1      1.385   .     S
C9     C18     1.373   .     S
N2     C10     1.349   .     S
N2     C11     1.351   .     S
N2     H70     1.110   .     S
C10    C36     1.388   .     S
C10    C13     1.381   .     S
C11    C12     1.394   .     S
C11    C38     1.418   .     S
C12    H12     1.140   .     S
C12    C13     1.377   .     S
C13    H13     1.140   .     S
C14    H49     1.140   .     S
C14    C15     1.397   .     S
C14    C39     1.429   .     S
C15    H50     1.140   .     S
C15    C40     1.439   .     S
O1     B2      1.464   .     S
C16    C18     1.390   .     S
C16    C17     1.412   .     S
C16    H1      1.140   .     S
C17    C26     1.427   .     S
C17    C114    1.410   .     S
C18    O4      1.384   .     S
C19    C35     1.388   .     S
C19    C22     1.380   .     S
C19    N4      1.353   .     S
C20    C21     1.394   .     S
C20    N4      1.353   .     S
C20    C38     1.419   .     S
C21    H14     1.140   .     S
C21    C22     1.376   .     S
C22    H15     1.140   .     S
C23    C39     1.429   .     S
C23    H47     1.140   .     S
C23    C24     1.397   .     S
C24    H48     1.140   .     S
C24    C40     1.439   .     S
C25    H2      1.140   .     S
C25    C26     1.412   .     S
C26    C61     1.410   .     S
C27    O2      1.383   .     S
N3     C28     1.346   .     S
N3     C29     1.351   .     S
C28    C36     1.390   .     S
C28    C31     1.379   .     S
C29    C30     1.389   .     S
C29    C42     1.416   .     S
C30    H16     1.140   .     S
C30    C31     1.376   .     S
C31    H17     1.140   .     S
C32    H18     1.140   .     S
C32    C33     1.397   .     S
C32    C37     1.437   .     S
C33    C43     1.438   .     S
C33    H19     1.140   .     S
O2     B1      1.463   .     S
C34    C44     1.411   .     S
C34    H20     1.140   .     S
C35    H21     1.140   .     S
C35    C41     1.387   .     S
C36    H22     1.140   .     S
C37    B1      1.548   .     S
B1     O3      1.462   .     S
C38    C40     1.501   .     S
C39    B2      1.551   .     S
B2     O4      1.463   .     S
C42    C43     1.502   .     S
C44    C52     1.418   .     S
H3     C67     1.140   .     S
H4     C68     1.140   .     S
H5     C58     1.140   .     S
H6     C59     1.140   .     S
C45    C71     1.372   .     S
C45    C78     1.389   .     S
C45    O7      1.383   .     S
N5     C46     1.350   .     S
N5     C85     1.345   .     S
C46    C47     1.389   .     S
C46    C86     1.417   .     S
C47    H29     1.140   .     S
C47    C48     1.376   .     S
C48    C85     1.380   .     S
C48    H30     1.140   .     S
C49    H31     1.140   .     S
C49    C50     1.396   .     S
C49    C81     1.436   .     S
C50    H32     1.140   .     S
C50    C87     1.459   .     S
C51    C52     1.411   .     S
C51    H33     1.140   .     S
C53    C69     1.390   .     S
C53    O5      1.385   .     S
C53    C62     1.373   .     S
N6     C55     1.351   .     S
N6     C54     1.349   .     S
C54    C80     1.388   .     S
C54    C57     1.381   .     S
C55    C56     1.394   .     S
C55    C82     1.418   .     S
C56    H34     1.140   .     S
C56    C57     1.377   .     S
C57    H35     1.140   .     S
C58    C59     1.397   .     S
C58    C83     1.429   .     S
C59    C84     1.439   .     S
O5     B4      1.464   .     S
C60    C62     1.390   .     S
C60    C61     1.412   .     S
C60    H23     1.140   .     S
C61    C70     1.427   .     S
C62    O8      1.384   .     S
C63    C79     1.388   .     S
C63    C66     1.380   .     S
C63    N8      1.353   .     S
C64    C65     1.394   .     S
C64    N8      1.353   .     S
C64    C82     1.419   .     S
C65    C66     1.376   .     S
C65    H36     1.140   .     S
C66    H37     1.140   .     S
C67    C68     1.397   .     S
C67    C83     1.429   .     S
C68    C84     1.439   .     S
C69    H24     1.140   .     S
C69    C70     1.412   .     S
C70    C105    1.410   .     S
C71    O6      1.383   .     S
N7     C72     1.346   .     S
N7     H67     1.110   .     S
N7     C73     1.351   .     S
C72    C80     1.390   .     S
C72    C75     1.379   .     S
C73    C74     1.389   .     S
C73    C86     1.416   .     S
C74    H38     1.140   .     S
C74    C75     1.376   .     S
C75    H39     1.140   .     S
C76    C77     1.397   .     S
C76    H40     1.140   .     S
C76    C81     1.437   .     S
C77    H41     1.140   .     S
C77    C87     1.438   .     S
O6     B3      1.463   .     S
C78    C88     1.411   .     S
C79    H43     1.140   .     S
C79    C85     1.387   .     S
C80    H44     1.140   .     S
C81    B3      1.548   .     S
B3     O7      1.462   .     S
C82    C84     1.501   .     S
C83    B4      1.551   .     S
B4     O8      1.463   .     S
N8     H68     1.110   .     S
C86    C87     1.502   .     S
H25    C111    1.140   .     S
H26    C112    1.140   .     S
H27    C102    1.140   .     S
H28    C103    1.140   .     S
C89    C115    1.372   .     S
C89    C122    1.389   .     S
C89    O11     1.383   .     S
N9     C129    1.345   .     S
N9     C90     1.350   .     S
C90    C130    1.417   .     S
C90    C91     1.389   .     S
C91    C92     1.376   .     S
C91    H51     1.140   .     S
C92    C129    1.380   .     S
C92    H52     1.140   .     S
C93    C125    1.436   .     S
C93    H53     1.140   .     S
C93    C94     1.396   .     S
C94    H54     1.140   .     S
C94    C131    1.459   .     S
C95    H55     1.140   .     S
C95    C115    1.389   .     S
C95    C96     1.411   .     S
C96    C132    1.416   .     S
C97    O9      1.385   .     S
C97    C106    1.373   .     S
C97    C113    1.390   .     S
N10    C98     1.349   .     S
N10    C99     1.351   .     S
N10    H71     1.110   .     S
C98    C101    1.381   .     S
C98    C124    1.388   .     S
C99    C100    1.394   .     S
C99    C126    1.418   .     S
C100   H56     1.140   .     S
C100   C101    1.377   .     S
C101   H57     1.140   .     S
C102   C103    1.397   .     S
C102   C127    1.429   .     S
C103   C128    1.439   .     S
O9     B6      1.464   .     S
C104   C105    1.412   .     S
C104   C106    1.390   .     S
C104   H45     1.140   .     S
C105   C114    1.427   .     S
C106   O12     1.384   .     S
C107   C110    1.380   .     S
C107   C123    1.388   .     S
C107   N12     1.353   .     S
C108   C109    1.394   .     S
C108   C126    1.419   .     S
C108   N12     1.353   .     S
C109   H58     1.140   .     S
C109   C110    1.376   .     S
C110   H59     1.140   .     S
C111   C127    1.429   .     S
C111   C112    1.397   .     S
C112   C128    1.439   .     S
C113   H46     1.140   .     S
C113   C114    1.412   .     S
C115   O10     1.383   .     S
N11    C116    1.346   .     S
N11    C117    1.351   .     S
C116   C124    1.390   .     S
C116   C119    1.379   .     S
C117   C118    1.389   .     S
C117   C130    1.416   .     S
C118   C119    1.376   .     S
C118   H60     1.140   .     S
C119   H61     1.140   .     S
C120   H62     1.140   .     S
C120   C121    1.397   .     S
C120   C125    1.437   .     S
C121   H63     1.140   .     S
C121   C131    1.438   .     S
O10    B5      1.463   .     S
C122   C132    1.411   .     S
C123   H65     1.140   .     S
C123   C129    1.387   .     S
C124   H66     1.140   .     S
C125   B5      1.548   .     S
B5     O11     1.462   .     S
C126   C128    1.501   .     S
C127   B6      1.551   .     S
B6     O12     1.463   .     S
C130   C131    1.502   .     S
