data_Tp-Stb
_audit_creation_date              2016-12-13
_audit_creation_method            'Materials Studio'
_symmetry_space_group_name_H-M    'P1'
_symmetry_Int_Tables_number       1
_symmetry_cell_setting            triclinic
loop_
_symmetry_equiv_pos_as_xyz
  x,y,z
_cell_length_a                    30.5000
_cell_length_b                    3.4919
_cell_length_c                    30.5000
_cell_angle_alpha                 90.0000
_cell_angle_beta                  120.0000
_cell_angle_gamma                 90.0000
loop_
_atom_site_label
_atom_site_type_symbol
_atom_site_fract_x
_atom_site_fract_y
_atom_site_fract_z
_atom_site_U_iso_or_equiv
_atom_site_adp_type
_atom_site_occupancy
O1     O     0.58569   0.00000   0.33875   0.00000  Uiso   1.00
N1     N     0.64727   0.00000   0.43778   0.00000  Uiso   1.00
C1     C     0.62679   0.00000   0.33889   0.00000  Uiso   1.00
C2     C     0.68799   0.00000   0.43509   0.00000  Uiso   1.00
C3     C     0.62800   0.00000   0.46698   0.00000  Uiso   1.00
C4     C     0.64929   0.00000   0.51945   0.00000  Uiso   1.00
C5     C     0.61473   0.00000   0.53709   0.00000  Uiso   1.00
C6     C     0.56180   0.00000   0.50162   0.00000  Uiso   1.00
C7     C     0.54300   0.00000   0.44958   0.00000  Uiso   1.00
C8     C     0.57579   0.00000   0.43281   0.00000  Uiso   1.00
C9     C     0.67625   0.00000   0.38322   0.00000  Uiso   1.00
H1     H     0.72323   0.00000   0.46703   0.00000  Uiso   1.00
H2     H     0.68755   0.00000   0.54318   0.00000  Uiso   1.00
H3     H     0.62111   0.00000   0.40480   0.00000  Uiso   1.00
H4     H     0.55834   0.00000   0.39432   0.00000  Uiso   1.00
H5     H     0.62818   0.00000   0.57526   0.00000  Uiso   1.00
H6     H     0.50644   0.00000   0.42133   0.00000  Uiso   1.00
O2     O     0.75739   0.00000   0.41530   0.00000  Uiso   1.00
N2     N     0.79547   0.00000   0.35436   0.00000  Uiso   1.00
C10    C     0.71665   0.00000   0.37415   0.00000  Uiso   1.00
C11    C     0.75217   0.00000   0.31334   0.00000  Uiso   1.00
C12    C     0.84413   0.00000   0.37486   0.00000  Uiso   1.00
C13    C     0.87675   0.00000   0.35496   0.00000  Uiso   1.00
C14    C     0.92885   0.00000   0.39048   0.00000  Uiso   1.00
C15    C     0.94257   0.00000   0.44205   0.00000  Uiso   1.00
C16    C     0.91007   0.00000   0.46169   0.00000  Uiso   1.00
C17    C     0.86095   0.00000   0.42714   0.00000  Uiso   1.00
C18    C     0.71179   0.00000   0.32479   0.00000  Uiso   1.00
H7     H     0.74902   0.00000   0.27817   0.00000  Uiso   1.00
H8     H     0.86319   0.00000   0.31687   0.00000  Uiso   1.00
H9     H     0.78818   0.00000   0.38012   0.00000  Uiso   1.00
H10    H     0.83946   0.00000   0.44386   0.00000  Uiso   1.00
H11    H     0.95539   0.00000   0.37933   0.00000  Uiso   1.00
H12    H     0.91936   0.00000   0.49963   0.00000  Uiso   1.00
O3     O     0.66275   0.00000   0.24357   0.00000  Uiso   1.00
N3     N     0.56381   0.00000   0.20590   0.00000  Uiso   1.00
C19    C     0.66235   0.00000   0.28438   0.00000  Uiso   1.00
C20    C     0.56617   0.00000   0.24923   0.00000  Uiso   1.00
C21    C     0.53517   0.00000   0.15736   0.00000  Uiso   1.00
C22    C     0.48252   0.00000   0.12571   0.00000  Uiso   1.00
C23    C     0.46483   0.00000   0.07342   0.00000  Uiso   1.00
C24    C     0.50184   0.00000   0.05858   0.00000  Uiso   1.00
C25    C     0.55416   0.00000   0.09017   0.00000  Uiso   1.00
C26    C     0.56993   0.00000   0.13965   0.00000  Uiso   1.00
C27    C     0.61795   0.00000   0.28947   0.00000  Uiso   1.00
H13    H     0.53418   0.00000   0.25245   0.00000  Uiso   1.00
H14    H     0.45864   0.00000   0.14005   0.00000  Uiso   1.00
H15    H     0.59678   0.00000   0.21283   0.00000  Uiso   1.00
H16    H     0.60827   0.00000   0.16079   0.00000  Uiso   1.00
H17    H     0.42695   0.00000   0.04753   0.00000  Uiso   1.00
H18    H     0.58203   0.00000   0.07987   0.00000  Uiso   1.00
C28    C     0.52655   0.00000   0.51665   0.00000  Uiso   1.00
C29    C     0.98341   0.00000   0.47905   0.00000  Uiso   1.00
C30    C     0.49654   0.00000   0.01716   0.00000  Uiso   1.00
O4     O     0.41431   0.00000   0.66125   0.00000  Uiso   1.00
N4     N     0.35273   0.00000   0.56222   0.00000  Uiso   1.00
C31    C     0.37321   0.00000   0.66111   0.00000  Uiso   1.00
C32    C     0.31201   0.00000   0.56491   0.00000  Uiso   1.00
C33    C     0.37200   0.00000   0.53302   0.00000  Uiso   1.00
C34    C     0.35071   0.00000   0.48055   0.00000  Uiso   1.00
C35    C     0.38527   0.00000   0.46291   0.00000  Uiso   1.00
C36    C     0.43820   0.00000   0.49838   0.00000  Uiso   1.00
C37    C     0.45700   0.00000   0.55042   0.00000  Uiso   1.00
C38    C     0.42421   0.00000   0.56719   0.00000  Uiso   1.00
C39    C     0.32375   0.00000   0.61678   0.00000  Uiso   1.00
H19    H     0.27677   0.00000   0.53297   0.00000  Uiso   1.00
H20    H     0.31245   0.00000   0.45682   0.00000  Uiso   1.00
H21    H     0.37889   0.00000   0.59520   0.00000  Uiso   1.00
H22    H     0.44166   0.00000   0.60568   0.00000  Uiso   1.00
H23    H     0.37182   0.00000   0.42474   0.00000  Uiso   1.00
H24    H     0.49356   0.00000   0.57867   0.00000  Uiso   1.00
O5     O     0.24261   0.00000   0.58470   0.00000  Uiso   1.00
N5     N     0.20453   0.00000   0.64564   0.00000  Uiso   1.00
C40    C     0.28335   0.00000   0.62585   0.00000  Uiso   1.00
C41    C     0.24783   0.00000   0.68666   0.00000  Uiso   1.00
C42    C     0.15587   0.00000   0.62514   0.00000  Uiso   1.00
C43    C     0.12325   0.00000   0.64504   0.00000  Uiso   1.00
C44    C     0.07115   0.00000   0.60952   0.00000  Uiso   1.00
C45    C     0.05743   0.00000   0.55795   0.00000  Uiso   1.00
C46    C     0.08993   0.00000   0.53831   0.00000  Uiso   1.00
C47    C     0.13905   0.00000   0.57286   0.00000  Uiso   1.00
C48    C     0.28821   0.00000   0.67521   0.00000  Uiso   1.00
H25    H     0.25098   0.00000   0.72183   0.00000  Uiso   1.00
H26    H     0.13681   0.00000   0.68313   0.00000  Uiso   1.00
H27    H     0.21182   0.00000   0.61988   0.00000  Uiso   1.00
H28    H     0.16054   0.00000   0.55614   0.00000  Uiso   1.00
H29    H     0.04461   0.00000   0.62067   0.00000  Uiso   1.00
H30    H     0.08064   0.00000   0.50037   0.00000  Uiso   1.00
O6     O     0.33725   0.00000   0.75643   0.00000  Uiso   1.00
N6     N     0.43619   0.00000   0.79410   0.00000  Uiso   1.00
C49    C     0.33765   0.00000   0.71562   0.00000  Uiso   1.00
C50    C     0.43383   0.00000   0.75077   0.00000  Uiso   1.00
C51    C     0.46483   0.00000   0.84264   0.00000  Uiso   1.00
C52    C     0.51748   0.00000   0.87429   0.00000  Uiso   1.00
C53    C     0.53517   0.00000   0.92658   0.00000  Uiso   1.00
C54    C     0.49816   0.00000   0.94142   0.00000  Uiso   1.00
C55    C     0.44584   0.00000   0.90983   0.00000  Uiso   1.00
C56    C     0.43007   0.00000   0.86035   0.00000  Uiso   1.00
C57    C     0.38205   0.00000   0.71053   0.00000  Uiso   1.00
H31    H     0.46582   0.00000   0.74755   0.00000  Uiso   1.00
H32    H     0.54136   0.00000   0.85995   0.00000  Uiso   1.00
H33    H     0.40322   0.00000   0.78717   0.00000  Uiso   1.00
H34    H     0.39173   0.00000   0.83921   0.00000  Uiso   1.00
H35    H     0.57305   0.00000   0.95247   0.00000  Uiso   1.00
H36    H     0.41797   0.00000   0.92013   0.00000  Uiso   1.00
C58    C     0.47345   0.00000   0.48335   0.00000  Uiso   1.00
C59    C     0.01659   0.00000   0.52095   0.00000  Uiso   1.00
C60    C     0.50346   0.00000   0.98284   0.00000  Uiso   1.00
H37    H     0.54307   0.00000   0.55473   0.00000  Uiso   1.00
H38    H     0.45693   0.00000   0.44527   0.00000  Uiso   1.00
loop_
_geom_bond_atom_site_label_1
_geom_bond_atom_site_label_2
_geom_bond_distance
_geom_bond_site_symmetry_2
_ccdc_geom_bond_type
O1     C1      1.251   .     S
N1     H3      0.920   .     S
N1     C3      1.289   .     S
N1     C2      1.285   .     S
C1     C9      1.437   .     S
C1     C27     1.392   .     S
C2     H1      1.028   .     S
C2     C9      1.437   .     S
C3     C8      1.401   .     S
C3     C4      1.394   .     S
C4     C5      1.403   .     S
C4     H2      1.020   .     S
C5     H5      1.023   .     S
C5     C6      1.425   .     S
C6     C28     1.363   .     S
C6     C7      1.392   .     S
C7     H6      1.012   .     S
C7     C8      1.332   .     S
C8     H4      1.018   .     S
C9     C10     1.391   .     S
O2     C10     1.249   .     S
N2     H9      0.917   .     S
N2     C12     1.291   .     S
N2     C11     1.287   .     S
C10    C18     1.437   .     S
C11    H7      1.028   .     S
C11    C18     1.438   .     S
C12    C13     1.401   .     S
C12    C17     1.410   .     S
C13    C14     1.406   .     S
C13    H8      1.020   .     S
C14    H11     1.023   .     S
C14    C15     1.411   .     S
C15    C16     1.391   .     S
C15    C29     1.191   .     S
C16    C17     1.333   .     S
C16    H12     1.045   .     S
C17    H10     1.012   .     S
C18    C19     1.391   .     S
O3     C19     1.251   .     S
N3     C20     1.287   .     S
N3     H15     0.918   .     S
N3     C21     1.289   .     S
C19    C27     1.438   .     S
C20    H13     1.028   .     S
C20    C27     1.436   .     S
C21    C26     1.410   .     S
C21    C22     1.400   .     S
C22    C23     1.405   .     S
C22    H14     1.020   .     S
C23    H17     1.023   .     S
C23    C24     1.410   .     S
C24    C30     1.191   .     S
C24    C25     1.392   .     S
C25    H18     1.043   .     S
C25    C26     1.335   .     S
C26    H16     1.015   .     S
C28    C58     1.418   .     S
C28    H37     1.009   .     S
O4     C31     1.251   .     S
N4     H21     0.920   .     S
N4     C32     1.285   .     S
N4     C33     1.289   .     S
C31    C39     1.437   .     S
C31    C57     1.392   .     S
C32    H19     1.028   .     S
C32    C39     1.437   .     S
C33    C34     1.394   .     S
C33    C38     1.401   .     S
C34    H20     1.020   .     S
C34    C35     1.403   .     S
C35    H23     1.023   .     S
C35    C36     1.425   .     S
C36    C58     1.363   .     S
C36    C37     1.392   .     S
C37    H24     1.012   .     S
C37    C38     1.332   .     S
C38    H22     1.018   .     S
C39    C40     1.391   .     S
O5     C40     1.249   .     S
N5     C42     1.291   .     S
N5     H27     0.917   .     S
N5     C41     1.287   .     S
C40    C48     1.437   .     S
C41    H25     1.028   .     S
C41    C48     1.438   .     S
C42    C43     1.401   .     S
C42    C47     1.410   .     S
C43    C44     1.406   .     S
C43    H26     1.020   .     S
C44    H29     1.023   .     S
C44    C45     1.411   .     S
C45    C46     1.391   .     S
C45    C59     1.191   .     S
C46    C47     1.333   .     S
C46    H30     1.045   .     S
C47    H28     1.012   .     S
C48    C49     1.391   .     S
O6     C49     1.251   .     S
N6     H33     0.918   .     S
N6     C50     1.287   .     S
N6     C51     1.289   .     S
C49    C57     1.438   .     S
C50    H31     1.028   .     S
C50    C57     1.436   .     S
C51    C56     1.410   .     S
C51    C52     1.400   .     S
C52    C53     1.405   .     S
C52    H32     1.020   .     S
C53    H35     1.023   .     S
C53    C54     1.410   .     S
C54    C60     1.191   .     S
C54    C55     1.392   .     S
C55    H36     1.043   .     S
C55    C56     1.335   .     S
C56    H34     1.015   .     S
C58    H38     1.009   .     S
