data_TpBD-NO2
_audit_creation_date              2016-12-13
_audit_creation_method            'Materials Studio'
_symmetry_space_group_name_H-M    'P1'
_symmetry_Int_Tables_number       1
_symmetry_cell_setting            triclinic
loop_
_symmetry_equiv_pos_as_xyz
  x,y,z
_cell_length_a                    29.2140
_cell_length_b                    29.2140
_cell_length_c                    3.6000
_cell_angle_alpha                 90.0000
_cell_angle_beta                  90.0000
_cell_angle_gamma                 60.0000
loop_
_atom_site_label
_atom_site_type_symbol
_atom_site_fract_x
_atom_site_fract_y
_atom_site_fract_z
_atom_site_U_iso_or_equiv
_atom_site_adp_type
_atom_site_occupancy
N1     N     0.38532   0.42352   0.38889   0.00000  Uiso   1.00
C2     C     0.40155   0.37180   0.38889   0.00000  Uiso   1.00
C3     C     0.41815   0.44426   0.38889   0.00000  Uiso   1.00
C4     C     0.47263   0.41232   0.38889   0.00000  Uiso   1.00
C5     C     0.50386   0.43458   0.38889   0.00000  Uiso   1.00
C6     C     0.48262   0.48904   0.38889   0.00000  Uiso   1.00
C7     C     0.42773   0.52049   0.38889   0.00000  Uiso   1.00
C8     C     0.39590   0.49854   0.38889   0.00000  Uiso   1.00
H9     H     0.44345   0.34200   0.38889   0.00000  Uiso   1.00
H10    H     0.34223   0.44635   0.38889   0.00000  Uiso   1.00
H11    H     0.35243   0.52337   0.38889   0.00000  Uiso   1.00
H12    H     0.54691   0.40815   0.38889   0.00000  Uiso   1.00
H13    H     0.40908   0.56366   0.38889   0.00000  Uiso   1.00
N14    N     0.49789   0.35286   0.38889   0.00000  Uiso   1.00
O15    O     0.48148   0.33157   0.59473   0.00000  Uiso   1.00
O16    O     0.53455   0.32650   0.18307   0.00000  Uiso   1.00
N17    N     0.61468   0.57648   0.38889   0.00000  Uiso   1.00
C18    C     0.59845   0.62820   0.38889   0.00000  Uiso   1.00
C19    C     0.58185   0.55574   0.38889   0.00000  Uiso   1.00
C20    C     0.52737   0.58768   0.38889   0.00000  Uiso   1.00
C21    C     0.49614   0.56543   0.38889   0.00000  Uiso   1.00
C22    C     0.51738   0.51096   0.38889   0.00000  Uiso   1.00
C23    C     0.57227   0.47951   0.38889   0.00000  Uiso   1.00
C24    C     0.60410   0.50146   0.38889   0.00000  Uiso   1.00
H25    H     0.55655   0.65800   0.38889   0.00000  Uiso   1.00
H26    H     0.65777   0.55365   0.38889   0.00000  Uiso   1.00
H27    H     0.64757   0.47663   0.38889   0.00000  Uiso   1.00
H28    H     0.45309   0.59185   0.38889   0.00000  Uiso   1.00
H29    H     0.59092   0.43634   0.38889   0.00000  Uiso   1.00
N30    N     0.50211   0.64714   0.38889   0.00000  Uiso   1.00
O31    O     0.51852   0.66843   0.59473   0.00000  Uiso   1.00
O32    O     0.46545   0.67350   0.18307   0.00000  Uiso   1.00
N33    N     0.19116   0.38532   0.38889   0.00000  Uiso   1.00
C34    C     0.22665   0.40155   0.38889   0.00000  Uiso   1.00
C35    C     0.13760   0.41815   0.38889   0.00000  Uiso   1.00
C36    C     0.11505   0.47263   0.38889   0.00000  Uiso   1.00
C37    C     0.06157   0.50386   0.38889   0.00000  Uiso   1.00
C38    C     0.02833   0.48262   0.38889   0.00000  Uiso   1.00
C39    C     0.05178   0.42773   0.38889   0.00000  Uiso   1.00
C40    C     0.10556   0.39590   0.38889   0.00000  Uiso   1.00
H41    H     0.21455   0.44345   0.38889   0.00000  Uiso   1.00
H42    H     0.21142   0.34223   0.38889   0.00000  Uiso   1.00
H43    H     0.12420   0.35243   0.38889   0.00000  Uiso   1.00
H44    H     0.04494   0.54691   0.38889   0.00000  Uiso   1.00
H45    H     0.02725   0.40908   0.38889   0.00000  Uiso   1.00
N46    N     0.14925   0.49789   0.38889   0.00000  Uiso   1.00
O47    O     0.18695   0.48148   0.59473   0.00000  Uiso   1.00
O48    O     0.13895   0.53455   0.18307   0.00000  Uiso   1.00
N49    N     0.80884   0.61468   0.38889   0.00000  Uiso   1.00
C50    C     0.77335   0.59845   0.38889   0.00000  Uiso   1.00
C51    C     0.86241   0.58185   0.38889   0.00000  Uiso   1.00
C52    C     0.88495   0.52737   0.38889   0.00000  Uiso   1.00
C53    C     0.93843   0.49614   0.38889   0.00000  Uiso   1.00
C54    C     0.97167   0.51738   0.38889   0.00000  Uiso   1.00
C55    C     0.94822   0.57227   0.38889   0.00000  Uiso   1.00
C56    C     0.89444   0.60410   0.38889   0.00000  Uiso   1.00
H57    H     0.78545   0.55655   0.38889   0.00000  Uiso   1.00
H58    H     0.78858   0.65777   0.38889   0.00000  Uiso   1.00
H59    H     0.87580   0.64757   0.38889   0.00000  Uiso   1.00
H60    H     0.95506   0.45309   0.38889   0.00000  Uiso   1.00
H61    H     0.97275   0.59092   0.38889   0.00000  Uiso   1.00
N62    N     0.85076   0.50211   0.38889   0.00000  Uiso   1.00
O63    O     0.81305   0.51852   0.59473   0.00000  Uiso   1.00
O64    O     0.86105   0.46545   0.18307   0.00000  Uiso   1.00
N65    N     0.42352   0.19116   0.38889   0.00000  Uiso   1.00
C66    C     0.37180   0.22665   0.38889   0.00000  Uiso   1.00
C67    C     0.44426   0.13760   0.38889   0.00000  Uiso   1.00
C68    C     0.41232   0.11505   0.38889   0.00000  Uiso   1.00
C69    C     0.43458   0.06157   0.38889   0.00000  Uiso   1.00
C70    C     0.48904   0.02833   0.38889   0.00000  Uiso   1.00
C71    C     0.52049   0.05178   0.38889   0.00000  Uiso   1.00
C72    C     0.49854   0.10556   0.38889   0.00000  Uiso   1.00
H73    H     0.34200   0.21455   0.38889   0.00000  Uiso   1.00
H74    H     0.44635   0.21142   0.38889   0.00000  Uiso   1.00
H75    H     0.52337   0.12420   0.38889   0.00000  Uiso   1.00
H76    H     0.40815   0.04494   0.38889   0.00000  Uiso   1.00
H77    H     0.56366   0.02725   0.38889   0.00000  Uiso   1.00
N78    N     0.35286   0.14925   0.38889   0.00000  Uiso   1.00
O79    O     0.33157   0.18695   0.59473   0.00000  Uiso   1.00
O80    O     0.32650   0.13895   0.18307   0.00000  Uiso   1.00
N81    N     0.57648   0.80884   0.38889   0.00000  Uiso   1.00
C82    C     0.62820   0.77335   0.38889   0.00000  Uiso   1.00
C83    C     0.55574   0.86241   0.38889   0.00000  Uiso   1.00
C84    C     0.58768   0.88495   0.38889   0.00000  Uiso   1.00
C85    C     0.56543   0.93843   0.38889   0.00000  Uiso   1.00
C86    C     0.51096   0.97167   0.38889   0.00000  Uiso   1.00
C87    C     0.47951   0.94822   0.38889   0.00000  Uiso   1.00
C88    C     0.50146   0.89444   0.38889   0.00000  Uiso   1.00
H89    H     0.65800   0.78545   0.38889   0.00000  Uiso   1.00
H90    H     0.55365   0.78858   0.38889   0.00000  Uiso   1.00
H91    H     0.47663   0.87580   0.38889   0.00000  Uiso   1.00
H92    H     0.59185   0.95506   0.38889   0.00000  Uiso   1.00
H93    H     0.43634   0.97275   0.38889   0.00000  Uiso   1.00
N94    N     0.64714   0.85075   0.38889   0.00000  Uiso   1.00
O95    O     0.66843   0.81305   0.59473   0.00000  Uiso   1.00
O96    O     0.67350   0.86105   0.18307   0.00000  Uiso   1.00
C97    C     0.68797   0.61178   0.38889   0.00000  Uiso   1.00
C98    C     0.63228   0.64489   0.38889   0.00000  Uiso   1.00
O99    O     0.70635   0.56641   0.38889   0.00000  Uiso   1.00
C100   C     0.61178   0.70025   0.38889   0.00000  Uiso   1.00
C101   C     0.64489   0.72284   0.38889   0.00000  Uiso   1.00
O102   O     0.56641   0.72724   0.38889   0.00000  Uiso   1.00
C103   C     0.70025   0.68797   0.38889   0.00000  Uiso   1.00
C104   C     0.72284   0.63228   0.38889   0.00000  Uiso   1.00
O105   O     0.72724   0.70635   0.38889   0.00000  Uiso   1.00
C106   C     0.31203   0.38822   0.38889   0.00000  Uiso   1.00
C107   C     0.36773   0.35511   0.38889   0.00000  Uiso   1.00
O108   O     0.29365   0.43359   0.38889   0.00000  Uiso   1.00
C109   C     0.38822   0.29975   0.38889   0.00000  Uiso   1.00
C110   C     0.35511   0.27716   0.38889   0.00000  Uiso   1.00
O111   O     0.43359   0.27276   0.38889   0.00000  Uiso   1.00
C112   C     0.29975   0.31203   0.38889   0.00000  Uiso   1.00
C113   C     0.27716   0.36773   0.38889   0.00000  Uiso   1.00
O114   O     0.27276   0.29365   0.38889   0.00000  Uiso   1.00
loop_
_geom_bond_atom_site_label_1
_geom_bond_atom_site_label_2
_geom_bond_distance
_geom_bond_site_symmetry_2
_ccdc_geom_bond_type
N1     H10     1.091   .     S
N1     C3      1.367   .     S
N1     C2      1.338   .     S
C2     C107    1.302   .     S
C2     H9      1.091   .     S
C3     C8      1.381   .     S
C3     C4      1.385   .     S
C4     N14     1.510   .     S
C4     C5      1.359   .     S
C5     C6      1.389   .     S
C5     H12     1.099   .     S
C6     C7      1.394   .     S
C6     C22     1.446   .     S
C7     C8      1.368   .     S
C7     H13     1.096   .     S
C8     H11     1.104   .     S
H9     O15     1.240   .     S
N14    O16     1.210   .     S
N14    O15     1.210   .     S
N17    C18     1.338   .     S
N17    C19     1.367   .     S
N17    H26     1.091   .     S
C18    C98     1.302   .     S
C18    H25     1.091   .     S
C19    C24     1.381   .     S
C19    C20     1.385   .     S
C20    C21     1.359   .     S
C20    N30     1.510   .     S
C21    H28     1.099   .     S
C21    C22     1.389   .     S
C22    C23     1.394   .     S
C23    H29     1.096   .     S
C23    C24     1.368   .     S
C24    H27     1.104   .     S
H25    O31     1.240   .     S
N30    O32     1.210   .     S
N30    O31     1.210   .     S
N33    C35     1.367   .     S
N33    C34     1.338   .     S
N33    H42     1.091   .     S
C34    C113    1.302   .     S
C34    H41     1.091   .     S
C35    C40     1.381   .     S
C35    C36     1.385   .     S
C36    C37     1.359   .     S
C36    N46     1.510   .     S
C37    H44     1.099   .     S
C37    C38     1.389   .     S
C38    C39     1.394   .     S
C39    H45     1.096   .     S
C39    C40     1.368   .     S
C40    H43     1.104   .     S
H41    O47     1.240   .     S
N46    O48     1.210   .     S
N46    O47     1.210   .     S
N49    C50     1.338   .     S
N49    C51     1.367   .     S
N49    H58     1.091   .     S
C50    C104    1.302   .     S
C50    H57     1.091   .     S
C51    C56     1.381   .     S
C51    C52     1.385   .     S
C52    N62     1.510   .     S
C52    C53     1.359   .     S
C53    C54     1.389   .     S
C53    H60     1.099   .     S
C54    C55     1.394   .     S
C55    H61     1.096   .     S
C55    C56     1.368   .     S
C56    H59     1.104   .     S
H57    O63     1.240   .     S
N62    O64     1.210   .     S
N62    O63     1.210   .     S
N65    C66     1.338   .     S
N65    H74     1.091   .     S
N65    C67     1.367   .     S
C66    C110    1.302   .     S
C66    H73     1.091   .     S
C67    C68     1.385   .     S
C67    C72     1.381   .     S
C68    N78     1.510   .     S
C68    C69     1.359   .     S
C69    H76     1.099   .     S
C69    C70     1.389   .     S
C70    C71     1.394   .     S
C71    H77     1.096   .     S
C71    C72     1.368   .     S
C72    H75     1.104   .     S
H73    O79     1.240   .     S
N78    O80     1.210   .     S
N78    O79     1.210   .     S
N81    C82     1.338   .     S
N81    H90     1.091   .     S
N81    C83     1.367   .     S
C82    H89     1.091   .     S
C82    C101    1.302   .     S
C83    C84     1.385   .     S
C83    C88     1.381   .     S
C84    N94     1.510   .     S
C84    C85     1.359   .     S
C85    H92     1.099   .     S
C85    C86     1.389   .     S
C86    C87     1.394   .     S
C87    H93     1.096   .     S
C87    C88     1.368   .     S
C88    H91     1.104   .     S
H89    O95     1.240   .     S
N94    O96     1.210   .     S
N94    O95     1.210   .     S
C97    O99     1.155   .     S
C97    C98     1.417   .     S
C97    C104    1.416   .     S
C98    C100    1.416   .     S
C100   O102    1.155   .     S
C100   C101    1.417   .     S
C101   C103    1.416   .     S
C103   C104    1.417   .     S
C103   O105    1.155   .     S
C106   C107    1.417   .     S
C106   C113    1.416   .     S
C106   O108    1.155   .     S
C107   C109    1.416   .     S
C109   C110    1.417   .     S
C109   O111    1.155   .     S
C110   C112    1.416   .     S
C112   O114    1.155   .     S
C112   C113    1.417   .     S
