data_TpBD-OMe2-FF
_audit_creation_date              2016-12-13
_audit_creation_method            'Materials Studio'
_symmetry_space_group_name_H-M    'P1'
_symmetry_Int_Tables_number       1
_symmetry_cell_setting            triclinic
loop_
_symmetry_equiv_pos_as_xyz
  x,y,z
_cell_length_a                    30.4240
_cell_length_b                    30.4240
_cell_length_c                    3.9680
_cell_angle_alpha                 90.0000
_cell_angle_beta                  90.0000
_cell_angle_gamma                 120.0000
loop_
_atom_site_label
_atom_site_type_symbol
_atom_site_fract_x
_atom_site_fract_y
_atom_site_fract_z
_atom_site_U_iso_or_equiv
_atom_site_adp_type
_atom_site_occupancy
H1     H     0.67951   0.59067  -0.22099   0.00000  Uiso   1.00
H2     H     0.40933   0.08884  -0.22099   0.00000  Uiso   1.00
H3     H     0.91116   0.32049  -0.22099   0.00000  Uiso   1.00
H4     H     0.32049   0.40933  -0.22099   0.00000  Uiso   1.00
H5     H     0.59067   0.91116  -0.22099   0.00000  Uiso   1.00
H6     H     0.08884   0.67951  -0.22099   0.00000  Uiso   1.00
H7     H     0.32049   0.40933   0.22099   0.00000  Uiso   1.00
H8     H     0.59067   0.91116   0.22099   0.00000  Uiso   1.00
H9     H     0.08884   0.67951   0.22099   0.00000  Uiso   1.00
H10    H     0.67951   0.59067   0.22099   0.00000  Uiso   1.00
H11    H     0.40933   0.08884   0.22099   0.00000  Uiso   1.00
H12    H     0.91116   0.32049   0.22099   0.00000  Uiso   1.00
H13    H     0.49603   0.62878   0.00000   0.00000  Uiso   1.00
H14    H     0.54480   0.58989   0.00000   0.00000  Uiso   1.00
H15    H     0.41132   0.44631   0.00000   0.00000  Uiso   1.00
O1     O     0.65128   0.51954   0.00000   0.00000  Uiso   1.00
C1     C     0.68535   0.57325   0.00000   0.00000  Uiso   1.00
H16    H     0.72431   0.58056   0.00000   0.00000  Uiso   1.00
O2     O     0.29848   0.56738   0.00000   0.00000  Uiso   1.00
N1     N     0.39328   0.58237   0.00000   0.00000  Uiso   1.00
C2     C     0.31534   0.61438   0.00000   0.00000  Uiso   1.00
C3     C     0.40501   0.63169   0.00000   0.00000  Uiso   1.00
C4     C     0.42397   0.56163   0.00000   0.00000  Uiso   1.00
C5     C     0.47743   0.59009   0.00000   0.00000  Uiso   1.00
C6     C     0.50663   0.56599   0.00000   0.00000  Uiso   1.00
C7     C     0.48491   0.51223   0.00000   0.00000  Uiso   1.00
C8     C     0.43081   0.48469   0.00000   0.00000  Uiso   1.00
C9     C     0.40069   0.50802   0.00000   0.00000  Uiso   1.00
C10    C     0.36863   0.64815   0.00000   0.00000  Uiso   1.00
H17    H     0.37122   0.86725   0.00000   0.00000  Uiso   1.00
H18    H     0.41011   0.95491   0.00000   0.00000  Uiso   1.00
H19    H     0.55369   0.96501   0.00000   0.00000  Uiso   1.00
O3     O     0.48046   0.13173   0.00000   0.00000  Uiso   1.00
C11    C     0.42675   0.11210   0.00000   0.00000  Uiso   1.00
H20    H     0.41944   0.14375   0.00000   0.00000  Uiso   1.00
O4     O     0.43262   0.73110   0.00000   0.00000  Uiso   1.00
N2     N     0.41762   0.81091   0.00000   0.00000  Uiso   1.00
C12    C     0.38562   0.70096   0.00000   0.00000  Uiso   1.00
C13    C     0.36831   0.77332   0.00000   0.00000  Uiso   1.00
C14    C     0.43837   0.86234   0.00000   0.00000  Uiso   1.00
C15    C     0.40991   0.88734   0.00000   0.00000  Uiso   1.00
C16    C     0.43401   0.94064   0.00000   0.00000  Uiso   1.00
C17    C     0.48777   0.97268   0.00000   0.00000  Uiso   1.00
C18    C     0.51531   0.94612   0.00000   0.00000  Uiso   1.00
C19    C     0.49198   0.89267   0.00000   0.00000  Uiso   1.00
C20    C     0.35185   0.72048   0.00000   0.00000  Uiso   1.00
H21    H     0.13275   0.50397   0.00000   0.00000  Uiso   1.00
H22    H     0.04509   0.45520   0.00000   0.00000  Uiso   1.00
H23    H     0.03499   0.58868   0.00000   0.00000  Uiso   1.00
O5     O     0.86826   0.34872   0.00000   0.00000  Uiso   1.00
C21    C     0.88790   0.31465   0.00000   0.00000  Uiso   1.00
H24    H     0.85624   0.27569   0.00000   0.00000  Uiso   1.00
O6     O     0.26890   0.70152   0.00000   0.00000  Uiso   1.00
N3     N     0.18909   0.60671   0.00000   0.00000  Uiso   1.00
C22    C     0.29904   0.68466   0.00000   0.00000  Uiso   1.00
C23    C     0.22668   0.59499   0.00000   0.00000  Uiso   1.00
C24    C     0.13766   0.57603   0.00000   0.00000  Uiso   1.00
C25    C     0.11266   0.52256   0.00000   0.00000  Uiso   1.00
C26    C     0.05936   0.49337   0.00000   0.00000  Uiso   1.00
C27    C     0.02731   0.51508   0.00000   0.00000  Uiso   1.00
C28    C     0.05388   0.56919   0.00000   0.00000  Uiso   1.00
C29    C     0.10733   0.59931   0.00000   0.00000  Uiso   1.00
C30    C     0.27952   0.63137   0.00000   0.00000  Uiso   1.00
H25    H     0.50397   0.37122   0.00000   0.00000  Uiso   1.00
H26    H     0.45520   0.41011   0.00000   0.00000  Uiso   1.00
H27    H     0.58868   0.55369   0.00000   0.00000  Uiso   1.00
O7     O     0.34872   0.48046   0.00000   0.00000  Uiso   1.00
C31    C     0.31465   0.42675   0.00000   0.00000  Uiso   1.00
H28    H     0.27569   0.41944   0.00000   0.00000  Uiso   1.00
O8     O     0.70152   0.43262   0.00000   0.00000  Uiso   1.00
N4     N     0.60671   0.41762   0.00000   0.00000  Uiso   1.00
C32    C     0.68466   0.38562   0.00000   0.00000  Uiso   1.00
C33    C     0.59499   0.36831   0.00000   0.00000  Uiso   1.00
C34    C     0.57603   0.43837   0.00000   0.00000  Uiso   1.00
C35    C     0.52256   0.40991   0.00000   0.00000  Uiso   1.00
C36    C     0.49337   0.43401   0.00000   0.00000  Uiso   1.00
C37    C     0.51508   0.48777   0.00000   0.00000  Uiso   1.00
C38    C     0.56919   0.51531   0.00000   0.00000  Uiso   1.00
C39    C     0.59931   0.49198   0.00000   0.00000  Uiso   1.00
C40    C     0.63137   0.35185   0.00000   0.00000  Uiso   1.00
H29    H     0.62878   0.13275   0.00000   0.00000  Uiso   1.00
H30    H     0.58989   0.04509   0.00000   0.00000  Uiso   1.00
H31    H     0.44631   0.03499   0.00000   0.00000  Uiso   1.00
O9     O     0.51954   0.86826   0.00000   0.00000  Uiso   1.00
C41    C     0.57325   0.88790   0.00000   0.00000  Uiso   1.00
H32    H     0.58056   0.85624   0.00000   0.00000  Uiso   1.00
O10    O     0.56738   0.26890   0.00000   0.00000  Uiso   1.00
N5     N     0.58237   0.18909   0.00000   0.00000  Uiso   1.00
C42    C     0.61438   0.29904   0.00000   0.00000  Uiso   1.00
C43    C     0.63169   0.22668   0.00000   0.00000  Uiso   1.00
C44    C     0.56163   0.13766   0.00000   0.00000  Uiso   1.00
C45    C     0.59009   0.11266   0.00000   0.00000  Uiso   1.00
C46    C     0.56599   0.05936   0.00000   0.00000  Uiso   1.00
C47    C     0.51223   0.02731   0.00000   0.00000  Uiso   1.00
C48    C     0.48469   0.05388   0.00000   0.00000  Uiso   1.00
C49    C     0.50802   0.10733   0.00000   0.00000  Uiso   1.00
C50    C     0.64815   0.27952   0.00000   0.00000  Uiso   1.00
H33    H     0.86725   0.49603   0.00000   0.00000  Uiso   1.00
H34    H     0.95491   0.54480   0.00000   0.00000  Uiso   1.00
H35    H     0.96501   0.41132   0.00000   0.00000  Uiso   1.00
O11    O     0.13173   0.65128   0.00000   0.00000  Uiso   1.00
C51    C     0.11210   0.68535   0.00000   0.00000  Uiso   1.00
H36    H     0.14375   0.72431   0.00000   0.00000  Uiso   1.00
O12    O     0.73110   0.29848   0.00000   0.00000  Uiso   1.00
N6     N     0.81091   0.39328   0.00000   0.00000  Uiso   1.00
C52    C     0.70096   0.31534   0.00000   0.00000  Uiso   1.00
C53    C     0.77332   0.40501   0.00000   0.00000  Uiso   1.00
C54    C     0.86234   0.42397   0.00000   0.00000  Uiso   1.00
C55    C     0.88734   0.47743   0.00000   0.00000  Uiso   1.00
C56    C     0.94064   0.50663   0.00000   0.00000  Uiso   1.00
C57    C     0.97268   0.48491   0.00000   0.00000  Uiso   1.00
C58    C     0.94612   0.43081   0.00000   0.00000  Uiso   1.00
C59    C     0.89267   0.40069   0.00000   0.00000  Uiso   1.00
C60    C     0.72048   0.36863   0.00000   0.00000  Uiso   1.00
H37    H     0.35695   0.55733   0.00000   0.00000  Uiso   1.00
H38    H     0.44260   0.65895   0.00000   0.00000  Uiso   1.00
H39    H     0.44267   0.79962   0.00000   0.00000  Uiso   1.00
H40    H     0.34105   0.78366   0.00000   0.00000  Uiso   1.00
H41    H     0.20038   0.64305   0.00000   0.00000  Uiso   1.00
H42    H     0.21634   0.55739   0.00000   0.00000  Uiso   1.00
H43    H     0.64305   0.44267   0.00000   0.00000  Uiso   1.00
H44    H     0.55739   0.34105   0.00000   0.00000  Uiso   1.00
H45    H     0.55733   0.20038   0.00000   0.00000  Uiso   1.00
H46    H     0.65895   0.21634   0.00000   0.00000  Uiso   1.00
H47    H     0.79962   0.35695   0.00000   0.00000  Uiso   1.00
H48    H     0.78366   0.44260   0.00000   0.00000  Uiso   1.00
loop_
_geom_bond_atom_site_label_1
_geom_bond_atom_site_label_2
_geom_bond_distance
_geom_bond_site_symmetry_2
_ccdc_geom_bond_type
H1     C1      1.084   .     S
H2     C11     1.084   .     S
H3     C21     1.084   .     S
H4     C31     1.084   .     S
H5     C41     1.084   .     S
H6     C51     1.084   .     S
H7     C31     1.084   .     S
H8     C41     1.084   .     S
H9     C51     1.084   .     S
H10    C1      1.084   .     S
H11    C11     1.084   .     S
H12    C21     1.084   .     S
H13    C5      1.020   .     S
H14    C6      1.016   .     S
H15    C8      1.011   .     S
O1     C39     1.370   .     S
O1     C1      1.432   .     S
C1     H16     1.091   .     S
O2     C2      1.255   .     S
N1     H37     0.980   .     S
N1     C4      1.364   .     S
N1     C3      1.358   .     S
C2     C10     1.421   .     S
C2     C30     1.421   .     S
C3     H38     1.023   .     S
C3     C10     1.425   .     S
C4     C5      1.410   .     S
C4     C9      1.416   .     S
C5     C6      1.406   .     S
C6     C7      1.425   .     S
C7     C8      1.426   .     S
C7     C37     1.442   .     S
C8     C9      1.412   .     S
C9     O7      1.370   .     S
C10    C12     1.421   .     S
H17    C15     1.020   .     S
H18    C16     1.016   .     S
H19    C18     1.011   .     S
O3     C49     1.370   .     S
O3     C11     1.432   .     S
C11    H20     1.091   .     S
O4     C12     1.255   .     S
N2     C14     1.364   .     S
N2     H39     0.980   .     S
N2     C13     1.358   .     S
C12    C20     1.421   .     S
C13    H40     1.023   .     S
C13    C20     1.425   .     S
C14    C19     1.416   .     S
C14    C15     1.410   .     S
C15    C16     1.406   .     S
C16    C17     1.425   .     S
C17    C18     1.426   .     S
C18    C19     1.412   .     S
C19    O9      1.370   .     S
C20    C22     1.421   .     S
H21    C25     1.020   .     S
H22    C26     1.016   .     S
H23    C28     1.011   .     S
O5     C59     1.370   .     S
O5     C21     1.432   .     S
C21    H24     1.091   .     S
O6     C22     1.255   .     S
N3     H41     0.980   .     S
N3     C23     1.358   .     S
N3     C24     1.364   .     S
C22    C30     1.421   .     S
C23    H42     1.023   .     S
C23    C30     1.425   .     S
C24    C29     1.416   .     S
C24    C25     1.410   .     S
C25    C26     1.406   .     S
C26    C27     1.425   .     S
C27    C28     1.426   .     S
C28    C29     1.412   .     S
C29    O11     1.370   .     S
H25    C35     1.020   .     S
H26    C36     1.016   .     S
H27    C38     1.011   .     S
O7     C31     1.432   .     S
C31    H28     1.091   .     S
O8     C32     1.255   .     S
N4     C34     1.364   .     S
N4     H43     0.980   .     S
N4     C33     1.358   .     S
C32    C40     1.421   .     S
C32    C60     1.421   .     S
C33    C40     1.425   .     S
C33    H44     1.023   .     S
C34    C35     1.410   .     S
C34    C39     1.416   .     S
C35    C36     1.406   .     S
C36    C37     1.425   .     S
C37    C38     1.426   .     S
C38    C39     1.412   .     S
C40    C42     1.421   .     S
H29    C45     1.020   .     S
H30    C46     1.016   .     S
H31    C48     1.011   .     S
O9     C41     1.432   .     S
C41    H32     1.091   .     S
O10    C42     1.255   .     S
N5     C44     1.364   .     S
N5     H45     0.980   .     S
N5     C43     1.358   .     S
C42    C50     1.421   .     S
C43    H46     1.023   .     S
C43    C50     1.425   .     S
C44    C49     1.416   .     S
C44    C45     1.410   .     S
C45    C46     1.406   .     S
C46    C47     1.425   .     S
C47    C48     1.426   .     S
C48    C49     1.412   .     S
C50    C52     1.421   .     S
H33    C55     1.020   .     S
H34    C56     1.016   .     S
H35    C58     1.011   .     S
O11    C51     1.432   .     S
C51    H36     1.091   .     S
O12    C52     1.255   .     S
N6     H47     0.980   .     S
N6     C53     1.358   .     S
N6     C54     1.364   .     S
C52    C60     1.421   .     S
C53    H48     1.023   .     S
C53    C60     1.425   .     S
C54    C55     1.410   .     S
C54    C59     1.416   .     S
C55    C56     1.406   .     S
C56    C57     1.425   .     S
C57    C58     1.426   .     S
C58    C59     1.412   .     S
