data_TPBD-ME2
_audit_creation_date              2016-12-13
_audit_creation_method            'Materials Studio'
_symmetry_space_group_name_H-M    'P1'
_symmetry_Int_Tables_number       1
_symmetry_cell_setting            triclinic
loop_
_symmetry_equiv_pos_as_xyz
  x,y,z
_cell_length_a                    29.2800
_cell_length_b                    29.2800
_cell_length_c                    3.2500
_cell_angle_alpha                 90.0000
_cell_angle_beta                  90.0000
_cell_angle_gamma                 120.0000
loop_
_atom_site_label
_atom_site_type_symbol
_atom_site_fract_x
_atom_site_fract_y
_atom_site_fract_z
_atom_site_U_iso_or_equiv
_atom_site_adp_type
_atom_site_occupancy
H1     H     0.54955   0.66375   0.21345   0.00000  Uiso   1.00
H2     H     0.33625   0.88580   0.21345   0.00000  Uiso   1.00
H3     H     0.11420   0.45045   0.21345   0.00000  Uiso   1.00
H4     H     0.45045   0.33625   0.21345   0.00000  Uiso   1.00
H5     H     0.66375   0.11420   0.21345   0.00000  Uiso   1.00
H6     H     0.88580   0.54955   0.21345   0.00000  Uiso   1.00
H7     H     0.45045   0.33625  -0.21345   0.00000  Uiso   1.00
H8     H     0.66375   0.11420  -0.21345   0.00000  Uiso   1.00
H9     H     0.88580   0.54955  -0.21345   0.00000  Uiso   1.00
H10    H     0.54955   0.66375  -0.21345   0.00000  Uiso   1.00
H11    H     0.33625   0.88580  -0.21345   0.00000  Uiso   1.00
H12    H     0.11420   0.45045  -0.21345   0.00000  Uiso   1.00
O1     O     0.28755   0.56179   0.00000   0.00000  Uiso   1.00
N1     N     0.38477   0.57293   0.00000   0.00000  Uiso   1.00
C1     C     0.30922   0.60977   0.00000   0.00000  Uiso   1.00
C2     C     0.39846   0.62504   0.00000   0.00000  Uiso   1.00
C3     C     0.42288   0.55812   0.00000   0.00000  Uiso   1.00
C4     C     0.47970   0.59233   0.00000   0.00000  Uiso   1.00
C5     C     0.50767   0.56659   0.00000   0.00000  Uiso   1.00
C6     C     0.48375   0.51191   0.00000   0.00000  Uiso   1.00
C7     C     0.42892   0.48087   0.00000   0.00000  Uiso   1.00
C8     C     0.39964   0.50379   0.00000   0.00000  Uiso   1.00
C9     C     0.36596   0.64285   0.00000   0.00000  Uiso   1.00
H13    H     0.43739   0.65183   0.00000   0.00000  Uiso   1.00
C10    C     0.51847   0.65311   0.00000   0.00000  Uiso   1.00
H14    H     0.34618   0.54274   0.00000   0.00000  Uiso   1.00
H15    H     0.35718   0.47793   0.00000   0.00000  Uiso   1.00
H16    H     0.54925   0.59149   0.00000   0.00000  Uiso   1.00
H17    H     0.40537   0.43880   0.00000   0.00000  Uiso   1.00
H18    H     0.51194   0.68695   0.00000   0.00000  Uiso   1.00
O2     O     0.43821   0.72576   0.00000   0.00000  Uiso   1.00
N2     N     0.42707   0.81184   0.00000   0.00000  Uiso   1.00
C11    C     0.39023   0.69945   0.00000   0.00000  Uiso   1.00
C12    C     0.37496   0.77342   0.00000   0.00000  Uiso   1.00
C13    C     0.44188   0.86476   0.00000   0.00000  Uiso   1.00
C14    C     0.40767   0.88737   0.00000   0.00000  Uiso   1.00
C15    C     0.43341   0.94108   0.00000   0.00000  Uiso   1.00
C16    C     0.48809   0.97184   0.00000   0.00000  Uiso   1.00
C17    C     0.51913   0.94805   0.00000   0.00000  Uiso   1.00
C18    C     0.49621   0.89585   0.00000   0.00000  Uiso   1.00
C19    C     0.35715   0.72311   0.00000   0.00000  Uiso   1.00
H19    H     0.34817   0.78556   0.00000   0.00000  Uiso   1.00
C20    C     0.34689   0.86536   0.00000   0.00000  Uiso   1.00
H20    H     0.45726   0.80344   0.00000   0.00000  Uiso   1.00
H21    H     0.52207   0.87925   0.00000   0.00000  Uiso   1.00
H22    H     0.40851   0.95776   0.00000   0.00000  Uiso   1.00
H23    H     0.56120   0.96657   0.00000   0.00000  Uiso   1.00
H24    H     0.31305   0.82499   0.00000   0.00000  Uiso   1.00
O3     O     0.27424   0.71245   0.00000   0.00000  Uiso   1.00
N3     N     0.18816   0.61523   0.00000   0.00000  Uiso   1.00
C21    C     0.30055   0.69078   0.00000   0.00000  Uiso   1.00
C22    C     0.22658   0.60154   0.00000   0.00000  Uiso   1.00
C23    C     0.13524   0.57712   0.00000   0.00000  Uiso   1.00
C24    C     0.11263   0.52030   0.00000   0.00000  Uiso   1.00
C25    C     0.05892   0.49233   0.00000   0.00000  Uiso   1.00
C26    C     0.02816   0.51625   0.00000   0.00000  Uiso   1.00
C27    C     0.05195   0.57108   0.00000   0.00000  Uiso   1.00
C28    C     0.10415   0.60036   0.00000   0.00000  Uiso   1.00
C29    C     0.27689   0.63404   0.00000   0.00000  Uiso   1.00
H25    H     0.21444   0.56261   0.00000   0.00000  Uiso   1.00
C30    C     0.13464   0.48153   0.00000   0.00000  Uiso   1.00
H26    H     0.19656   0.65382   0.00000   0.00000  Uiso   1.00
H27    H     0.12075   0.64282   0.00000   0.00000  Uiso   1.00
H28    H     0.04224   0.45075   0.00000   0.00000  Uiso   1.00
H29    H     0.03343   0.59463   0.00000   0.00000  Uiso   1.00
H30    H     0.17501   0.48806   0.00000   0.00000  Uiso   1.00
O4     O     0.71245   0.43821   0.00000   0.00000  Uiso   1.00
N4     N     0.61523   0.42707   0.00000   0.00000  Uiso   1.00
C31    C     0.69078   0.39023   0.00000   0.00000  Uiso   1.00
C32    C     0.60154   0.37496   0.00000   0.00000  Uiso   1.00
C33    C     0.57712   0.44188   0.00000   0.00000  Uiso   1.00
C34    C     0.52030   0.40767   0.00000   0.00000  Uiso   1.00
C35    C     0.49233   0.43341   0.00000   0.00000  Uiso   1.00
C36    C     0.51625   0.48809   0.00000   0.00000  Uiso   1.00
C37    C     0.57108   0.51913   0.00000   0.00000  Uiso   1.00
C38    C     0.60036   0.49621   0.00000   0.00000  Uiso   1.00
C39    C     0.63404   0.35715   0.00000   0.00000  Uiso   1.00
H31    H     0.56261   0.34817   0.00000   0.00000  Uiso   1.00
C40    C     0.48153   0.34689   0.00000   0.00000  Uiso   1.00
H32    H     0.65382   0.45726   0.00000   0.00000  Uiso   1.00
H33    H     0.64282   0.52207   0.00000   0.00000  Uiso   1.00
H34    H     0.45075   0.40851   0.00000   0.00000  Uiso   1.00
H35    H     0.59463   0.56120   0.00000   0.00000  Uiso   1.00
H36    H     0.48806   0.31305   0.00000   0.00000  Uiso   1.00
O5     O     0.56179   0.27424   0.00000   0.00000  Uiso   1.00
N5     N     0.57293   0.18816   0.00000   0.00000  Uiso   1.00
C41    C     0.60977   0.30055   0.00000   0.00000  Uiso   1.00
C42    C     0.62504   0.22658   0.00000   0.00000  Uiso   1.00
C43    C     0.55812   0.13524   0.00000   0.00000  Uiso   1.00
C44    C     0.59233   0.11263   0.00000   0.00000  Uiso   1.00
C45    C     0.56659   0.05892   0.00000   0.00000  Uiso   1.00
C46    C     0.51191   0.02816   0.00000   0.00000  Uiso   1.00
C47    C     0.48087   0.05195   0.00000   0.00000  Uiso   1.00
C48    C     0.50379   0.10415   0.00000   0.00000  Uiso   1.00
C49    C     0.64285   0.27689   0.00000   0.00000  Uiso   1.00
H37    H     0.65183   0.21444   0.00000   0.00000  Uiso   1.00
C50    C     0.65311   0.13464   0.00000   0.00000  Uiso   1.00
H38    H     0.54274   0.19656   0.00000   0.00000  Uiso   1.00
H39    H     0.47793   0.12075   0.00000   0.00000  Uiso   1.00
H40    H     0.59149   0.04224   0.00000   0.00000  Uiso   1.00
H41    H     0.43880   0.03343   0.00000   0.00000  Uiso   1.00
H42    H     0.68695   0.17501   0.00000   0.00000  Uiso   1.00
O6     O     0.72576   0.28755   0.00000   0.00000  Uiso   1.00
N6     N     0.81184   0.38477   0.00000   0.00000  Uiso   1.00
C51    C     0.69945   0.30922   0.00000   0.00000  Uiso   1.00
C52    C     0.77342   0.39846   0.00000   0.00000  Uiso   1.00
C53    C     0.86476   0.42288   0.00000   0.00000  Uiso   1.00
C54    C     0.88737   0.47970   0.00000   0.00000  Uiso   1.00
C55    C     0.94108   0.50767   0.00000   0.00000  Uiso   1.00
C56    C     0.97184   0.48375   0.00000   0.00000  Uiso   1.00
C57    C     0.94805   0.42892   0.00000   0.00000  Uiso   1.00
C58    C     0.89585   0.39964   0.00000   0.00000  Uiso   1.00
C59    C     0.72311   0.36596   0.00000   0.00000  Uiso   1.00
H43    H     0.78556   0.43739   0.00000   0.00000  Uiso   1.00
C60    C     0.86536   0.51847   0.00000   0.00000  Uiso   1.00
H44    H     0.80344   0.34618   0.00000   0.00000  Uiso   1.00
H45    H     0.87925   0.35718   0.00000   0.00000  Uiso   1.00
H46    H     0.95776   0.54925   0.00000   0.00000  Uiso   1.00
H47    H     0.96657   0.40537   0.00000   0.00000  Uiso   1.00
H48    H     0.82499   0.51194   0.00000   0.00000  Uiso   1.00
loop_
_geom_bond_atom_site_label_1
_geom_bond_atom_site_label_2
_geom_bond_distance
_geom_bond_site_symmetry_2
_ccdc_geom_bond_type
H1     C10     1.060   .     S
H2     C20     1.060   .     S
H3     C30     1.060   .     S
H4     C40     1.060   .     S
H5     C50     1.060   .     S
H6     C60     1.060   .     S
H7     C40     1.060   .     S
H8     C50     1.060   .     S
H9     C60     1.060   .     S
H10    C10     1.060   .     S
H11    C20     1.060   .     S
H12    C30     1.060   .     S
O1     C1      1.219   .     S
N1     C2      1.370   .     S
N1     H14     1.029   .     S
N1     C3      1.385   .     S
C1     C9      1.445   .     S
C1     C29     1.440   .     S
C2     H13     1.010   .     S
C2     C9      1.294   .     S
C3     C8      1.382   .     S
C3     C4      1.451   .     S
C4     C5      1.362   .     S
C4     C10     1.561   .     S
C5     H16     1.061   .     S
C5     C6      1.390   .     S
C6     C7      1.394   .     S
C6     C36     1.434   .     S
C7     H17     1.069   .     S
C7     C8      1.327   .     S
C8     H15     1.085   .     S
C9     C11     1.440   .     S
C10    H18     1.099   .     S
O2     C11     1.219   .     S
N2     H20     1.029   .     S
N2     C12     1.370   .     S
N2     C13     1.385   .     S
C11    C19     1.445   .     S
C12    H19     1.010   .     S
C12    C19     1.294   .     S
C13    C18     1.382   .     S
C13    C14     1.451   .     S
C14    C20     1.561   .     S
C14    C15     1.362   .     S
C15    H22     1.061   .     S
C15    C16     1.390   .     S
C16    C17     1.394   .     S
C17    H23     1.069   .     S
C17    C18     1.327   .     S
C18    H21     1.085   .     S
C19    C21     1.440   .     S
C20    H24     1.099   .     S
O3     C21     1.219   .     S
N3     C22     1.370   .     S
N3     C23     1.385   .     S
N3     H26     1.029   .     S
C21    C29     1.445   .     S
C22    H25     1.010   .     S
C22    C29     1.294   .     S
C23    C28     1.382   .     S
C23    C24     1.451   .     S
C24    C25     1.362   .     S
C24    C30     1.561   .     S
C25    C26     1.390   .     S
C25    H28     1.061   .     S
C26    C27     1.394   .     S
C27    C28     1.327   .     S
C27    H29     1.069   .     S
C28    H27     1.085   .     S
C30    H30     1.099   .     S
O4     C31     1.219   .     S
N4     C33     1.385   .     S
N4     H32     1.029   .     S
N4     C32     1.370   .     S
C31    C59     1.440   .     S
C31    C39     1.445   .     S
C32    C39     1.294   .     S
C32    H31     1.010   .     S
C33    C38     1.382   .     S
C33    C34     1.451   .     S
C34    C35     1.362   .     S
C34    C40     1.561   .     S
C35    C36     1.390   .     S
C35    H34     1.061   .     S
C36    C37     1.394   .     S
C37    C38     1.327   .     S
C37    H35     1.069   .     S
C38    H33     1.085   .     S
C39    C41     1.440   .     S
C40    H36     1.099   .     S
O5     C41     1.219   .     S
N5     H38     1.029   .     S
N5     C42     1.370   .     S
N5     C43     1.385   .     S
C41    C49     1.445   .     S
C42    C49     1.294   .     S
C42    H37     1.010   .     S
C43    C44     1.451   .     S
C43    C48     1.382   .     S
C44    C50     1.561   .     S
C44    C45     1.362   .     S
C45    C46     1.390   .     S
C45    H40     1.061   .     S
C46    C47     1.394   .     S
C47    H41     1.069   .     S
C47    C48     1.327   .     S
C48    H39     1.085   .     S
C49    C51     1.440   .     S
C50    H42     1.099   .     S
O6     C51     1.219   .     S
N6     C52     1.370   .     S
N6     C53     1.385   .     S
N6     H44     1.029   .     S
C51    C59     1.445   .     S
C52    C59     1.294   .     S
C52    H43     1.010   .     S
C53    C54     1.451   .     S
C53    C58     1.382   .     S
C54    C60     1.561   .     S
C54    C55     1.362   .     S
C55    H46     1.061   .     S
C55    C56     1.390   .     S
C56    C57     1.394   .     S
C57    H47     1.069   .     S
C57    C58     1.327   .     S
C58    H45     1.085   .     S
C60    H48     1.099   .     S
