data_TpBD
_audit_creation_date              2016-12-13
_audit_creation_method            'Materials Studio'
_symmetry_space_group_name_H-M    'P1'
_symmetry_Int_Tables_number       1
_symmetry_cell_setting            triclinic
loop_
_symmetry_equiv_pos_as_xyz
  x,y,z
_cell_length_a                    29.2871
_cell_length_b                    29.2871
_cell_length_c                    3.2500
_cell_angle_alpha                 90.0000
_cell_angle_beta                  90.0000
_cell_angle_gamma                 120.0000
loop_
_atom_site_label
_atom_site_type_symbol
_atom_site_fract_x
_atom_site_fract_y
_atom_site_fract_z
_atom_site_U_iso_or_equiv
_atom_site_adp_type
_atom_site_occupancy
O1     O     0.29560   0.56120   0.00000   0.00000  Uiso   1.00
N1     N     0.38720   0.57810   0.00000   0.00000  Uiso   1.00
C1     C     0.31350   0.61070   0.00000   0.00000  Uiso   1.00
C2     C     0.40390   0.62980   0.00000   0.00000  Uiso   1.00
C3     C     0.41950   0.55690   0.00000   0.00000  Uiso   1.00
C4     C     0.47390   0.58830   0.00000   0.00000  Uiso   1.00
C5     C     0.50460   0.56560   0.00000   0.00000  Uiso   1.00
C6     C     0.48290   0.51120   0.00000   0.00000  Uiso   1.00
C7     C     0.42810   0.48030   0.00000   0.00000  Uiso   1.00
C8     C     0.39680   0.50270   0.00000   0.00000  Uiso   1.00
C9     C     0.36840   0.64720   0.00000   0.00000  Uiso   1.00
H1     H     0.44580   0.65920   0.00000   0.00000  Uiso   1.00
H2     H     0.49260   0.63140   0.00000   0.00000  Uiso   1.00
H3     H     0.34420   0.55570   0.00000   0.00000  Uiso   1.00
H4     H     0.35340   0.47830   0.00000   0.00000  Uiso   1.00
H5     H     0.54760   0.59160   0.00000   0.00000  Uiso   1.00
H6     H     0.40910   0.43720   0.00000   0.00000  Uiso   1.00
O2     O     0.43880   0.73440   0.00000   0.00000  Uiso   1.00
N2     N     0.42190   0.80910   0.00000   0.00000  Uiso   1.00
C10    C     0.38930   0.70280   0.00000   0.00000  Uiso   1.00
C11    C     0.37020   0.77410   0.00000   0.00000  Uiso   1.00
C12    C     0.44310   0.86260   0.00000   0.00000  Uiso   1.00
C13    C     0.41170   0.88560   0.00000   0.00000  Uiso   1.00
C14    C     0.43440   0.93900   0.00000   0.00000  Uiso   1.00
C15    C     0.48880   0.97170   0.00000   0.00000  Uiso   1.00
C16    C     0.51970   0.94780   0.00000   0.00000  Uiso   1.00
C17    C     0.49730   0.89410   0.00000   0.00000  Uiso   1.00
C18    C     0.35280   0.72120   0.00000   0.00000  Uiso   1.00
H7     H     0.34080   0.78660   0.00000   0.00000  Uiso   1.00
H8     H     0.36860   0.86120   0.00000   0.00000  Uiso   1.00
H9     H     0.44430   0.78850   0.00000   0.00000  Uiso   1.00
H10    H     0.52170   0.87510   0.00000   0.00000  Uiso   1.00
H11    H     0.40840   0.95600   0.00000   0.00000  Uiso   1.00
H12    H     0.56280   0.97190   0.00000   0.00000  Uiso   1.00
O3     O     0.26560   0.70440   0.00000   0.00000  Uiso   1.00
N3     N     0.19090   0.61280   0.00000   0.00000  Uiso   1.00
C19    C     0.29720   0.68650   0.00000   0.00000  Uiso   1.00
C20    C     0.22590   0.59610   0.00000   0.00000  Uiso   1.00
C21    C     0.13740   0.58050   0.00000   0.00000  Uiso   1.00
C22    C     0.11440   0.52610   0.00000   0.00000  Uiso   1.00
C23    C     0.06100   0.49540   0.00000   0.00000  Uiso   1.00
C24    C     0.02830   0.51710   0.00000   0.00000  Uiso   1.00
C25    C     0.05220   0.57190   0.00000   0.00000  Uiso   1.00
C26    C     0.10590   0.60320   0.00000   0.00000  Uiso   1.00
C27    C     0.27880   0.63160   0.00000   0.00000  Uiso   1.00
H13    H     0.21340   0.55420   0.00000   0.00000  Uiso   1.00
H14    H     0.13880   0.50740   0.00000   0.00000  Uiso   1.00
H15    H     0.21150   0.65580   0.00000   0.00000  Uiso   1.00
H16    H     0.12490   0.64660   0.00000   0.00000  Uiso   1.00
H17    H     0.04400   0.45240   0.00000   0.00000  Uiso   1.00
H18    H     0.02810   0.59090   0.00000   0.00000  Uiso   1.00
O4     O     0.70440   0.43880   0.00000   0.00000  Uiso   1.00
N4     N     0.61280   0.42190   0.00000   0.00000  Uiso   1.00
C28    C     0.68650   0.38930   0.00000   0.00000  Uiso   1.00
C29    C     0.59610   0.37020   0.00000   0.00000  Uiso   1.00
C30    C     0.58050   0.44310   0.00000   0.00000  Uiso   1.00
C31    C     0.52610   0.41170   0.00000   0.00000  Uiso   1.00
C32    C     0.49540   0.43440   0.00000   0.00000  Uiso   1.00
C33    C     0.51710   0.48880   0.00000   0.00000  Uiso   1.00
C34    C     0.57190   0.51970   0.00000   0.00000  Uiso   1.00
C35    C     0.60320   0.49730   0.00000   0.00000  Uiso   1.00
C36    C     0.63160   0.35280   0.00000   0.00000  Uiso   1.00
H19    H     0.55420   0.34080   0.00000   0.00000  Uiso   1.00
H20    H     0.50740   0.36860   0.00000   0.00000  Uiso   1.00
H21    H     0.65580   0.44430   0.00000   0.00000  Uiso   1.00
H22    H     0.64660   0.52170   0.00000   0.00000  Uiso   1.00
H23    H     0.45240   0.40840   0.00000   0.00000  Uiso   1.00
H24    H     0.59090   0.56280   0.00000   0.00000  Uiso   1.00
O5     O     0.56120   0.26560   0.00000   0.00000  Uiso   1.00
N5     N     0.57810   0.19090   0.00000   0.00000  Uiso   1.00
C37    C     0.61070   0.29720   0.00000   0.00000  Uiso   1.00
C38    C     0.62980   0.22590   0.00000   0.00000  Uiso   1.00
C39    C     0.55690   0.13740   0.00000   0.00000  Uiso   1.00
C40    C     0.58830   0.11440   0.00000   0.00000  Uiso   1.00
C41    C     0.56560   0.06100   0.00000   0.00000  Uiso   1.00
C42    C     0.51120   0.02830   0.00000   0.00000  Uiso   1.00
C43    C     0.48030   0.05220   0.00000   0.00000  Uiso   1.00
C44    C     0.50270   0.10590   0.00000   0.00000  Uiso   1.00
C45    C     0.64720   0.27880   0.00000   0.00000  Uiso   1.00
H25    H     0.65920   0.21340   0.00000   0.00000  Uiso   1.00
H26    H     0.63140   0.13880   0.00000   0.00000  Uiso   1.00
H27    H     0.55570   0.21150   0.00000   0.00000  Uiso   1.00
H28    H     0.47830   0.12490   0.00000   0.00000  Uiso   1.00
H29    H     0.59160   0.04400   0.00000   0.00000  Uiso   1.00
H30    H     0.43720   0.02810   0.00000   0.00000  Uiso   1.00
O6     O     0.73440   0.29560   0.00000   0.00000  Uiso   1.00
N6     N     0.80910   0.38720   0.00000   0.00000  Uiso   1.00
C46    C     0.70280   0.31350   0.00000   0.00000  Uiso   1.00
C47    C     0.77410   0.40390   0.00000   0.00000  Uiso   1.00
C48    C     0.86260   0.41950   0.00000   0.00000  Uiso   1.00
C49    C     0.88560   0.47390   0.00000   0.00000  Uiso   1.00
C50    C     0.93900   0.50460   0.00000   0.00000  Uiso   1.00
C51    C     0.97170   0.48290   0.00000   0.00000  Uiso   1.00
C52    C     0.94780   0.42810   0.00000   0.00000  Uiso   1.00
C53    C     0.89410   0.39680   0.00000   0.00000  Uiso   1.00
C54    C     0.72120   0.36840   0.00000   0.00000  Uiso   1.00
H31    H     0.78660   0.44580   0.00000   0.00000  Uiso   1.00
H32    H     0.86120   0.49260   0.00000   0.00000  Uiso   1.00
H33    H     0.78850   0.34420   0.00000   0.00000  Uiso   1.00
H34    H     0.87510   0.35340   0.00000   0.00000  Uiso   1.00
H35    H     0.95600   0.54760   0.00000   0.00000  Uiso   1.00
H36    H     0.97190   0.40910   0.00000   0.00000  Uiso   1.00
loop_
_geom_bond_atom_site_label_1
_geom_bond_atom_site_label_2
_geom_bond_distance
_geom_bond_site_symmetry_2
_ccdc_geom_bond_type
O1     C1      1.271   .     S
N1     C2      1.338   .     S
N1     H3      1.091   .     S
N1     C3      1.367   .     S
C1     C9      1.417   .     S
C1     C27     1.425   .     S
C2     H1      1.091   .     S
C2     C9      1.368   .     S
C3     C8      1.381   .     S
C3     C4      1.385   .     S
C4     C5      1.359   .     S
C4     H2      1.096   .     S
C5     H5      1.099   .     S
C5     C6      1.389   .     S
C6     C33     1.446   .     S
C6     C7      1.394   .     S
C7     H6      1.096   .     S
C7     C8      1.368   .     S
C8     H4      1.104   .     S
C9     C10     1.425   .     S
O2     C10     1.271   .     S
N2     H9      1.091   .     S
N2     C11     1.338   .     S
N2     C12     1.367   .     S
C10    C18     1.417   .     S
C11    H7      1.091   .     S
C11    C18     1.368   .     S
C12    C17     1.381   .     S
C12    C13     1.385   .     S
C13    H8      1.096   .     S
C13    C14     1.359   .     S
C14    H11     1.099   .     S
C14    C15     1.389   .     S
C15    C16     1.394   .     S
C16    H12     1.096   .     S
C16    C17     1.368   .     S
C17    H10     1.104   .     S
C18    C19     1.425   .     S
O3     C19     1.271   .     S
N3     C20     1.338   .     S
N3     C21     1.367   .     S
N3     H15     1.091   .     S
C19    C27     1.417   .     S
C20    C27     1.368   .     S
C20    H13     1.091   .     S
C21    C26     1.381   .     S
C21    C22     1.385   .     S
C22    C23     1.359   .     S
C22    H14     1.096   .     S
C23    C24     1.389   .     S
C23    H17     1.099   .     S
C24    C25     1.394   .     S
C25    C26     1.368   .     S
C25    H18     1.096   .     S
C26    H16     1.104   .     S
O4     C28     1.271   .     S
N4     C30     1.367   .     S
N4     H21     1.091   .     S
N4     C29     1.338   .     S
C28    C54     1.425   .     S
C28    C36     1.417   .     S
C29    C36     1.368   .     S
C29    H19     1.091   .     S
C30    C35     1.381   .     S
C30    C31     1.385   .     S
C31    H20     1.096   .     S
C31    C32     1.359   .     S
C32    C33     1.389   .     S
C32    H23     1.099   .     S
C33    C34     1.394   .     S
C34    C35     1.368   .     S
C34    H24     1.096   .     S
C35    H22     1.104   .     S
C36    C37     1.425   .     S
O5     C37     1.271   .     S
N5     H27     1.091   .     S
N5     C38     1.338   .     S
N5     C39     1.367   .     S
C37    C45     1.417   .     S
C38    C45     1.368   .     S
C38    H25     1.091   .     S
C39    C40     1.385   .     S
C39    C44     1.381   .     S
C40    H26     1.096   .     S
C40    C41     1.359   .     S
C41    C42     1.389   .     S
C41    H29     1.099   .     S
C42    C43     1.394   .     S
C43    H30     1.096   .     S
C43    C44     1.368   .     S
C44    H28     1.104   .     S
C45    C46     1.425   .     S
O6     C46     1.271   .     S
N6     C47     1.338   .     S
N6     C48     1.367   .     S
N6     H33     1.091   .     S
C46    C54     1.417   .     S
C47    C54     1.368   .     S
C47    H31     1.091   .     S
C48    C49     1.385   .     S
C48    C53     1.381   .     S
C49    H32     1.096   .     S
C49    C50     1.359   .     S
C50    H35     1.099   .     S
C50    C51     1.389   .     S
C51    C52     1.394   .     S
C52    H36     1.096   .     S
C52    C53     1.368   .     S
C53    H34     1.104   .     S
