data_TpBDH
_audit_creation_date              2016-12-13
_audit_creation_method            'Materials Studio'
_symmetry_space_group_name_H-M    'P1'
_symmetry_Int_Tables_number       1
_symmetry_cell_setting            triclinic
loop_
_symmetry_equiv_pos_as_xyz
  x,y,z
_cell_length_a                    29.2089
_cell_length_b                    29.2089
_cell_length_c                    3.4641
_cell_angle_alpha                 90.0000
_cell_angle_beta                  90.0000
_cell_angle_gamma                 120.0000
loop_
_atom_site_label
_atom_site_type_symbol
_atom_site_fract_x
_atom_site_fract_y
_atom_site_fract_z
_atom_site_U_iso_or_equiv
_atom_site_adp_type
_atom_site_occupancy
C1     C     0.37018   0.59221   0.50000   0.00000  Uiso   1.00
C2     C     0.40779   0.77797   0.50000   0.00000  Uiso   1.00
C3     C     0.22203   0.62982   0.50000   0.00000  Uiso   1.00
C4     C     0.62982   0.40779   0.50000   0.00000  Uiso   1.00
C5     C     0.59221   0.22203   0.50000   0.00000  Uiso   1.00
C6     C     0.77797   0.37018   0.50000   0.00000  Uiso   1.00
N7     N     0.42124   0.60367   0.50000   0.00000  Uiso   1.00
N8     N     0.39633   0.81757   0.50000   0.00000  Uiso   1.00
N9     N     0.18243   0.57876   0.50000   0.00000  Uiso   1.00
N10    N     0.57876   0.39633   0.50000   0.00000  Uiso   1.00
N11    N     0.60367   0.18243   0.50000   0.00000  Uiso   1.00
N12    N     0.81757   0.42124   0.50000   0.00000  Uiso   1.00
N13    N     0.44035   0.57155   0.50000   0.00000  Uiso   1.00
N14    N     0.42845   0.86880   0.50000   0.00000  Uiso   1.00
N15    N     0.13120   0.55965   0.50000   0.00000  Uiso   1.00
N16    N     0.55965   0.42845   0.50000   0.00000  Uiso   1.00
N17    N     0.57155   0.13120   0.50000   0.00000  Uiso   1.00
N18    N     0.86880   0.44035   0.50000   0.00000  Uiso   1.00
C19    C     0.44933   0.45229   0.50000   0.00000  Uiso   1.00
C20    C     0.54771   0.99704   0.50000   0.00000  Uiso   1.00
C21    C     0.00296   0.55067   0.50000   0.00000  Uiso   1.00
C22    C     0.55067   0.54771   0.50000   0.00000  Uiso   1.00
C23    C     0.45229   0.00296   0.50000   0.00000  Uiso   1.00
C24    C     0.99704   0.44933   0.50000   0.00000  Uiso   1.00
C25    C     0.45384   0.50268   0.50000   0.00000  Uiso   1.00
C26    C     0.49732   0.95117   0.50000   0.00000  Uiso   1.00
C27    C     0.04883   0.54616   0.50000   0.00000  Uiso   1.00
C28    C     0.54616   0.49732   0.50000   0.00000  Uiso   1.00
C29    C     0.50268   0.04883   0.50000   0.00000  Uiso   1.00
C30    C     0.95117   0.45384   0.50000   0.00000  Uiso   1.00
C31    C     0.50300   0.54892   0.50000   0.00000  Uiso   1.00
C32    C     0.45108   0.95409   0.50000   0.00000  Uiso   1.00
C33    C     0.04591   0.49700   0.50000   0.00000  Uiso   1.00
C34    C     0.49700   0.45108   0.50000   0.00000  Uiso   1.00
C35    C     0.54892   0.04591   0.50000   0.00000  Uiso   1.00
C36    C     0.95409   0.50300   0.50000   0.00000  Uiso   1.00
C37    C     0.41565   0.51783   0.50000   0.00000  Uiso   1.00
C38    C     0.48217   0.89782   0.50000   0.00000  Uiso   1.00
C39    C     0.10218   0.58435   0.50000   0.00000  Uiso   1.00
C40    C     0.58435   0.48217   0.50000   0.00000  Uiso   1.00
C41    C     0.51783   0.10218   0.50000   0.00000  Uiso   1.00
C42    C     0.89782   0.41565   0.50000   0.00000  Uiso   1.00
C43    C     0.49325   0.59084   0.50000   0.00000  Uiso   1.00
C44    C     0.40916   0.90241   0.50000   0.00000  Uiso   1.00
C45    C     0.09759   0.50675   0.50000   0.00000  Uiso   1.00
C46    C     0.50675   0.40916   0.50000   0.00000  Uiso   1.00
C47    C     0.59084   0.09759   0.50000   0.00000  Uiso   1.00
C48    C     0.90241   0.49325   0.50000   0.00000  Uiso   1.00
H49    H     0.65773   0.44683   0.50000   0.00000  Uiso   1.00
H50    H     0.55317   0.21091   0.50000   0.00000  Uiso   1.00
H51    H     0.78909   0.34227   0.50000   0.00000  Uiso   1.00
H52    H     0.34227   0.55317   0.50000   0.00000  Uiso   1.00
H53    H     0.44683   0.78909   0.50000   0.00000  Uiso   1.00
H54    H     0.21091   0.65773   0.50000   0.00000  Uiso   1.00
O55    O     0.63296   0.51450   0.50000   0.00000  Uiso   1.00
O56    O     0.48550   0.11846   0.50000   0.00000  Uiso   1.00
O57    O     0.88154   0.36704   0.50000   0.00000  Uiso   1.00
O58    O     0.36704   0.48550   0.50000   0.00000  Uiso   1.00
O59    O     0.51450   0.88154   0.50000   0.00000  Uiso   1.00
O60    O     0.11846   0.63296   0.50000   0.00000  Uiso   1.00
O61    O     0.47155   0.36137   0.50000   0.00000  Uiso   1.00
O62    O     0.63863   0.11018   0.50000   0.00000  Uiso   1.00
O63    O     0.88981   0.52845   0.50000   0.00000  Uiso   1.00
O64    O     0.52845   0.63863   0.50000   0.00000  Uiso   1.00
O65    O     0.36137   0.88981   0.50000   0.00000  Uiso   1.00
O66    O     0.11018   0.47155   0.50000   0.00000  Uiso   1.00
H67    H     0.44725   0.64070   0.50000   0.00000  Uiso   1.00
H68    H     0.35930   0.80655   0.50000   0.00000  Uiso   1.00
H69    H     0.19345   0.55275   0.50000   0.00000  Uiso   1.00
H70    H     0.55275   0.35930   0.50000   0.00000  Uiso   1.00
H71    H     0.64070   0.19345   0.50000   0.00000  Uiso   1.00
H72    H     0.80655   0.44725   0.50000   0.00000  Uiso   1.00
H73    H     0.58663   0.58162   0.50000   0.00000  Uiso   1.00
H74    H     0.41838   0.00502   0.50000   0.00000  Uiso   1.00
H75    H     0.99498   0.41337   0.50000   0.00000  Uiso   1.00
H76    H     0.41337   0.41838   0.50000   0.00000  Uiso   1.00
H77    H     0.58162   0.99498   0.50000   0.00000  Uiso   1.00
H78    H     0.00502   0.58663   0.50000   0.00000  Uiso   1.00
C79    C     0.61195   0.31434   0.50000   0.00000  Uiso   1.00
C80    C     0.64716   0.36998   0.50000   0.00000  Uiso   1.00
C81    C     0.68566   0.29761   0.50000   0.00000  Uiso   1.00
C82    C     0.63002   0.27719   0.50000   0.00000  Uiso   1.00
C83    C     0.70239   0.38805   0.50000   0.00000  Uiso   1.00
C84    C     0.72281   0.35283   0.50000   0.00000  Uiso   1.00
C85    C     0.38805   0.68566   0.50000   0.00000  Uiso   1.00
C86    C     0.35283   0.63002   0.50000   0.00000  Uiso   1.00
C87    C     0.31434   0.70239   0.50000   0.00000  Uiso   1.00
C88    C     0.36998   0.72281   0.50000   0.00000  Uiso   1.00
C89    C     0.29761   0.61195   0.50000   0.00000  Uiso   1.00
C90    C     0.27719   0.64716   0.50000   0.00000  Uiso   1.00
O91    O     0.56296   0.29678   0.50000   0.00000  Uiso   1.00
O92    O     0.70322   0.26618   0.50000   0.00000  Uiso   1.00
O93    O     0.73382   0.43703   0.50000   0.00000  Uiso   1.00
O94    O     0.43703   0.70322   0.50000   0.00000  Uiso   1.00
O95    O     0.29678   0.73382   0.50000   0.00000  Uiso   1.00
O96    O     0.26618   0.56296   0.50000   0.00000  Uiso   1.00
loop_
_geom_bond_atom_site_label_1
_geom_bond_atom_site_label_2
_geom_bond_distance
_geom_bond_site_symmetry_2
_ccdc_geom_bond_type
C1     N7      1.355   .     S
C1     C86     1.427   .     S
C1     H52     1.017   .     S
C2     H53     1.017   .     S
C2     N8      1.355   .     S
C2     C88     1.427   .     S
C3     N9      1.355   .     S
C3     H54     1.017   .     S
C3     C90     1.427   .     S
C4     C80     1.427   .     S
C4     N10     1.355   .     S
C4     H49     1.017   .     S
C5     H50     1.017   .     S
C5     C82     1.427   .     S
C5     N11     1.355   .     S
C6     C84     1.427   .     S
C6     N12     1.355   .     S
C6     H51     1.017   .     S
N7     N13     1.310   .     S
N7     H67     0.962   .     S
N8     H68     0.962   .     S
N8     N14     1.310   .     S
N9     H69     0.962   .     S
N9     N15     1.310   .     S
N10    H70     0.962   .     S
N10    N16     1.310   .     S
N11    H71     0.962   .     S
N11    N17     1.310   .     S
N12    N18     1.310   .     S
N12    H72     0.962   .     S
N13    C43     1.354   .     S
N13    C37     1.360   .     S
N14    C44     1.354   .     S
N14    C38     1.360   .     S
N15    C45     1.354   .     S
N15    C39     1.360   .     S
N16    C40     1.360   .     S
N16    C46     1.354   .     S
N17    C47     1.354   .     S
N17    C41     1.360   .     S
N18    C48     1.354   .     S
N18    C42     1.360   .     S
C19    C34     1.410   .     S
C19    C25     1.410   .     S
C19    H76     1.022   .     S
C20    H77     1.022   .     S
C20    C26     1.410   .     S
C21    C27     1.410   .     S
C21    H78     1.022   .     S
C22    C28     1.410   .     S
C22    C31     1.410   .     S
C22    H73     1.022   .     S
C23    C29     1.410   .     S
C23    H74     1.022   .     S
C24    C30     1.410   .     S
C24    H75     1.022   .     S
C25    C31     1.395   .     S
C25    C37     1.391   .     S
C26    C32     1.395   .     S
C26    C38     1.391   .     S
C27    C33     1.395   .     S
C27    C39     1.391   .     S
C28    C34     1.395   .     S
C28    C40     1.391   .     S
C29    C35     1.395   .     S
C29    C41     1.391   .     S
C30    C36     1.395   .     S
C30    C42     1.391   .     S
C31    C43     1.389   .     S
C32    C44     1.389   .     S
C33    C45     1.389   .     S
C34    C46     1.389   .     S
C35    C47     1.389   .     S
C36    C48     1.389   .     S
C37    O58     1.252   .     S
C38    O59     1.252   .     S
C39    O60     1.252   .     S
C40    O55     1.252   .     S
C41    O56     1.252   .     S
C42    O57     1.252   .     S
C43    O64     1.253   .     S
C44    O65     1.253   .     S
C45    O66     1.253   .     S
C46    O61     1.253   .     S
C47    O62     1.253   .     S
C48    O63     1.253   .     S
C79    O91     1.256   .     S
C79    C80     1.424   .     S
C79    C82     1.424   .     S
C80    C83     1.424   .     S
C81    C84     1.424   .     S
C81    C82     1.424   .     S
C81    O92     1.256   .     S
C83    C84     1.424   .     S
C83    O93     1.256   .     S
C85    C88     1.424   .     S
C85    O94     1.256   .     S
C85    C86     1.424   .     S
C86    C89     1.424   .     S
C87    O95     1.256   .     S
C87    C88     1.424   .     S
C87    C90     1.424   .     S
C89    O96     1.256   .     S
C89    C90     1.424   .     S
