data_TpBD-2NO2
_audit_creation_date              2016-12-13
_audit_creation_method            'Materials Studio'
_symmetry_space_group_name_H-M    'P1'
_symmetry_Int_Tables_number       1
_symmetry_cell_setting            triclinic
loop_
_symmetry_equiv_pos_as_xyz
  x,y,z
_cell_length_a                    31.5400
_cell_length_b                    31.5400
_cell_length_c                    3.4900
_cell_angle_alpha                 90.0000
_cell_angle_beta                  90.0000
_cell_angle_gamma                 120.0000
loop_
_atom_site_label
_atom_site_type_symbol
_atom_site_fract_x
_atom_site_fract_y
_atom_site_fract_z
_atom_site_U_iso_or_equiv
_atom_site_adp_type
_atom_site_occupancy
O1     O     0.30539   0.57108   0.00000   0.00000  Uiso   1.00
N1     N     0.40525   0.59303   0.00000   0.00000  Uiso   1.00
C1     C     0.31857   0.61439   0.00000   0.00000  Uiso   1.00
C2     C     0.40982   0.64127   0.00000   0.00000  Uiso   1.00
C3     C     0.43874   0.57305   0.00000   0.00000  Uiso   1.00
C4     C     0.49214   0.59702   0.00000   0.00000  Uiso   1.00
C5     C     0.51373   0.56669   0.00000   0.00000  Uiso   1.00
C6     C     0.48726   0.51517   0.00000   0.00000  Uiso   1.00
C7     C     0.43624   0.49340   0.00000   0.00000  Uiso   1.00
C8     C     0.41338   0.52122   0.00000   0.00000  Uiso   1.00
C9     C     0.37200   0.65149   0.00000   0.00000  Uiso   1.00
H1     H     0.44478   0.67270   0.00000   0.00000  Uiso   1.00
N2     N     0.52725   0.64933   0.00000   0.00000  Uiso   1.00
H2     H     0.36931   0.56515   0.00000   0.00000  Uiso   1.00
H3     H     0.37368   0.50068   0.00000   0.00000  Uiso   1.00
H4     H     0.55281   0.58494   0.00000   0.00000  Uiso   1.00
H5     H     0.41200   0.45439   0.00000   0.00000  Uiso   1.00
O2     O     0.42892   0.73431   0.00000   0.00000  Uiso   1.00
N3     N     0.40697   0.81222   0.00000   0.00000  Uiso   1.00
C10    C     0.38561   0.70418   0.00000   0.00000  Uiso   1.00
C11    C     0.35873   0.76855   0.00000   0.00000  Uiso   1.00
C12    C     0.42695   0.86569   0.00000   0.00000  Uiso   1.00
C13    C     0.40298   0.89512   0.00000   0.00000  Uiso   1.00
C14    C     0.43331   0.94704   0.00000   0.00000  Uiso   1.00
C15    C     0.48483   0.97209   0.00000   0.00000  Uiso   1.00
C16    C     0.50660   0.94284   0.00000   0.00000  Uiso   1.00
C17    C     0.47878   0.89216   0.00000   0.00000  Uiso   1.00
C18    C     0.34851   0.72051   0.00000   0.00000  Uiso   1.00
H6     H     0.32730   0.77208   0.00000   0.00000  Uiso   1.00
N4     N     0.35067   0.87792   0.00000   0.00000  Uiso   1.00
H7     H     0.43485   0.80416   0.00000   0.00000  Uiso   1.00
H8     H     0.49932   0.87300   0.00000   0.00000  Uiso   1.00
H9     H     0.41506   0.96787   0.00000   0.00000  Uiso   1.00
H10    H     0.54561   0.95761   0.00000   0.00000  Uiso   1.00
O3     O     0.26569   0.69461   0.00000   0.00000  Uiso   1.00
N5     N     0.18778   0.59475   0.00000   0.00000  Uiso   1.00
C19    C     0.29582   0.68143   0.00000   0.00000  Uiso   1.00
C20    C     0.23145   0.59018   0.00000   0.00000  Uiso   1.00
C21    C     0.13431   0.56126   0.00000   0.00000  Uiso   1.00
C22    C     0.10488   0.50786   0.00000   0.00000  Uiso   1.00
C23    C     0.05296   0.48627   0.00000   0.00000  Uiso   1.00
C24    C     0.02791   0.51274   0.00000   0.00000  Uiso   1.00
C25    C     0.05716   0.56376   0.00000   0.00000  Uiso   1.00
C26    C     0.10784   0.58662   0.00000   0.00000  Uiso   1.00
C27    C     0.27949   0.62800   0.00000   0.00000  Uiso   1.00
H11    H     0.22792   0.55522   0.00000   0.00000  Uiso   1.00
N6     N     0.12208   0.47275   0.00000   0.00000  Uiso   1.00
H12    H     0.19584   0.63069   0.00000   0.00000  Uiso   1.00
H13    H     0.12700   0.62632   0.00000   0.00000  Uiso   1.00
H14    H     0.03213   0.44719   0.00000   0.00000  Uiso   1.00
H15    H     0.04239   0.58800   0.00000   0.00000  Uiso   1.00
O4     O     0.69461   0.42892   0.00000   0.00000  Uiso   1.00
N7     N     0.59475   0.40697   0.00000   0.00000  Uiso   1.00
C28    C     0.68143   0.38561   0.00000   0.00000  Uiso   1.00
C29    C     0.59018   0.35873   0.00000   0.00000  Uiso   1.00
C30    C     0.56126   0.42695   0.00000   0.00000  Uiso   1.00
C31    C     0.50786   0.40298   0.00000   0.00000  Uiso   1.00
C32    C     0.48627   0.43331   0.00000   0.00000  Uiso   1.00
C33    C     0.51274   0.48483   0.00000   0.00000  Uiso   1.00
C34    C     0.56376   0.50660   0.00000   0.00000  Uiso   1.00
C35    C     0.58662   0.47878   0.00000   0.00000  Uiso   1.00
C36    C     0.62800   0.34851   0.00000   0.00000  Uiso   1.00
H16    H     0.55522   0.32730   0.00000   0.00000  Uiso   1.00
N8     N     0.47275   0.35067   0.00000   0.00000  Uiso   1.00
H17    H     0.63069   0.43485   0.00000   0.00000  Uiso   1.00
H18    H     0.62632   0.49932   0.00000   0.00000  Uiso   1.00
H19    H     0.44719   0.41506   0.00000   0.00000  Uiso   1.00
H20    H     0.58800   0.54561   0.00000   0.00000  Uiso   1.00
O5     O     0.57108   0.26569   0.00000   0.00000  Uiso   1.00
N9     N     0.59303   0.18778   0.00000   0.00000  Uiso   1.00
C37    C     0.61439   0.29582   0.00000   0.00000  Uiso   1.00
C38    C     0.64127   0.23145   0.00000   0.00000  Uiso   1.00
C39    C     0.57305   0.13431   0.00000   0.00000  Uiso   1.00
C40    C     0.59702   0.10488   0.00000   0.00000  Uiso   1.00
C41    C     0.56669   0.05296   0.00000   0.00000  Uiso   1.00
C42    C     0.51517   0.02791   0.00000   0.00000  Uiso   1.00
C43    C     0.49340   0.05716   0.00000   0.00000  Uiso   1.00
C44    C     0.52122   0.10784   0.00000   0.00000  Uiso   1.00
C45    C     0.65149   0.27949   0.00000   0.00000  Uiso   1.00
H21    H     0.67270   0.22792   0.00000   0.00000  Uiso   1.00
N10    N     0.64933   0.12208   0.00000   0.00000  Uiso   1.00
H22    H     0.56515   0.19584   0.00000   0.00000  Uiso   1.00
H23    H     0.50068   0.12700   0.00000   0.00000  Uiso   1.00
H24    H     0.58494   0.03213   0.00000   0.00000  Uiso   1.00
H25    H     0.45439   0.04239   0.00000   0.00000  Uiso   1.00
O6     O     0.73431   0.30539   0.00000   0.00000  Uiso   1.00
N11    N     0.81222   0.40525   0.00000   0.00000  Uiso   1.00
C46    C     0.70418   0.31857   0.00000   0.00000  Uiso   1.00
C47    C     0.76855   0.40982   0.00000   0.00000  Uiso   1.00
C48    C     0.86569   0.43874   0.00000   0.00000  Uiso   1.00
C49    C     0.89512   0.49214   0.00000   0.00000  Uiso   1.00
C50    C     0.94704   0.51373   0.00000   0.00000  Uiso   1.00
C51    C     0.97209   0.48726   0.00000   0.00000  Uiso   1.00
C52    C     0.94284   0.43624   0.00000   0.00000  Uiso   1.00
C53    C     0.89216   0.41338   0.00000   0.00000  Uiso   1.00
C54    C     0.72051   0.37200   0.00000   0.00000  Uiso   1.00
H26    H     0.77208   0.44478   0.00000   0.00000  Uiso   1.00
N12    N     0.87792   0.52725   0.00000   0.00000  Uiso   1.00
H27    H     0.80416   0.36931   0.00000   0.00000  Uiso   1.00
H28    H     0.87300   0.37368   0.00000   0.00000  Uiso   1.00
H29    H     0.96787   0.55281   0.00000   0.00000  Uiso   1.00
H30    H     0.95761   0.41200   0.00000   0.00000  Uiso   1.00
O7     O     0.51520   0.68269   0.00000   0.00000  Uiso   1.00
O8     O     0.57404   0.66477   0.00000   0.00000  Uiso   1.00
O9     O     0.31731   0.83251   0.00000   0.00000  Uiso   1.00
O10    O     0.33523   0.90927   0.00000   0.00000  Uiso   1.00
O11    O     0.16749   0.48480   0.00000   0.00000  Uiso   1.00
O12    O     0.09073   0.42596   0.00000   0.00000  Uiso   1.00
O13    O     0.48480   0.31731   0.00000   0.00000  Uiso   1.00
O14    O     0.42596   0.33523   0.00000   0.00000  Uiso   1.00
O15    O     0.68269   0.16749   0.00000   0.00000  Uiso   1.00
O16    O     0.66477   0.09073   0.00000   0.00000  Uiso   1.00
O17    O     0.83251   0.51520   0.00000   0.00000  Uiso   1.00
O18    O     0.90927   0.57404   0.00000   0.00000  Uiso   1.00
loop_
_geom_bond_atom_site_label_1
_geom_bond_atom_site_label_2
_geom_bond_distance
_geom_bond_site_symmetry_2
_ccdc_geom_bond_type
O1     C1      1.213   .     S
N1     C2      1.455   .     S
N1     H2      1.030   .     S
N1     C3      1.476   .     S
C1     C27     1.494   .     S
C1     C9      1.496   .     S
C2     H1      1.051   .     S
C2     C9      1.382   .     S
C3     C8      1.416   .     S
C3     C4      1.461   .     S
C4     N2      1.456   .     S
C4     C5      1.425   .     S
C5     H4      1.068   .     S
C5     C6      1.407   .     S
C6     C33     1.527   .     S
C6     C7      1.399   .     S
C7     H5      1.076   .     S
C7     C8      1.387   .     S
C8     H3      1.085   .     S
C9     C10     1.494   .     S
N2     O7      1.285   .     S
N2     O8      1.302   .     S
O2     C10     1.213   .     S
N3     H7      1.030   .     S
N3     C12     1.476   .     S
N3     C11     1.455   .     S
C10    C18     1.496   .     S
C11    C18     1.382   .     S
C11    H6      1.051   .     S
C12    C13     1.461   .     S
C12    C17     1.416   .     S
C13    N4      1.456   .     S
C13    C14     1.425   .     S
C14    C15     1.407   .     S
C14    H9      1.068   .     S
C15    C16     1.399   .     S
C16    H10     1.076   .     S
C16    C17     1.387   .     S
C17    H8      1.085   .     S
C18    C19     1.494   .     S
N4     O10     1.302   .     S
N4     O9      1.285   .     S
O3     C19     1.213   .     S
N5     C20     1.455   .     S
N5     H12     1.030   .     S
N5     C21     1.476   .     S
C19    C27     1.496   .     S
C20    C27     1.382   .     S
C20    H11     1.051   .     S
C21    C26     1.416   .     S
C21    C22     1.461   .     S
C22    N6      1.456   .     S
C22    C23     1.425   .     S
C23    C24     1.407   .     S
C23    H14     1.068   .     S
C24    C25     1.399   .     S
C25    H15     1.076   .     S
C25    C26     1.387   .     S
C26    H13     1.085   .     S
N6     O11     1.285   .     S
N6     O12     1.302   .     S
O4     C28     1.213   .     S
N7     C30     1.476   .     S
N7     H17     1.030   .     S
N7     C29     1.455   .     S
C28    C36     1.496   .     S
C28    C54     1.494   .     S
C29    H16     1.051   .     S
C29    C36     1.382   .     S
C30    C31     1.461   .     S
C30    C35     1.416   .     S
C31    C32     1.425   .     S
C31    N8      1.456   .     S
C32    H19     1.068   .     S
C32    C33     1.407   .     S
C33    C34     1.399   .     S
C34    C35     1.387   .     S
C34    H20     1.076   .     S
C35    H18     1.085   .     S
C36    C37     1.494   .     S
N8     O14     1.302   .     S
N8     O13     1.285   .     S
O5     C37     1.213   .     S
N9     C39     1.476   .     S
N9     H22     1.030   .     S
N9     C38     1.455   .     S
C37    C45     1.496   .     S
C38    H21     1.051   .     S
C38    C45     1.382   .     S
C39    C40     1.461   .     S
C39    C44     1.416   .     S
C40    N10     1.456   .     S
C40    C41     1.425   .     S
C41    C42     1.407   .     S
C41    H24     1.068   .     S
C42    C43     1.399   .     S
C43    H25     1.076   .     S
C43    C44     1.387   .     S
C44    H23     1.085   .     S
C45    C46     1.494   .     S
N10    O16     1.302   .     S
N10    O15     1.285   .     S
O6     C46     1.213   .     S
N11    C47     1.455   .     S
N11    C48     1.476   .     S
N11    H27     1.030   .     S
C46    C54     1.496   .     S
C47    H26     1.051   .     S
C47    C54     1.382   .     S
C48    C53     1.416   .     S
C48    C49     1.461   .     S
C49    C50     1.425   .     S
C49    N12     1.456   .     S
C50    C51     1.407   .     S
C50    H29     1.068   .     S
C51    C52     1.399   .     S
C52    C53     1.387   .     S
C52    H30     1.076   .     S
C53    H28     1.085   .     S
N12    O18     1.302   .     S
N12    O17     1.285   .     S
