data_TpPa-SO3H
_audit_creation_date              2016-12-13
_audit_creation_method            'Materials Studio'
_symmetry_space_group_name_H-M    'P1'
_symmetry_Int_Tables_number       1
_symmetry_cell_setting            triclinic
loop_
_symmetry_equiv_pos_as_xyz
  x,y,z
_cell_length_a                    23.2823
_cell_length_b                    23.2823
_cell_length_c                    3.3000
_cell_angle_alpha                 90.0000
_cell_angle_beta                  90.0000
_cell_angle_gamma                 120.0000
loop_
_atom_site_label
_atom_site_type_symbol
_atom_site_fract_x
_atom_site_fract_y
_atom_site_fract_z
_atom_site_U_iso_or_equiv
_atom_site_adp_type
_atom_site_occupancy
C1     C     0.41525   0.61406   0.61238   0.00000  Uiso   1.00
C2     C     0.58475   0.38594   0.61238   0.00000  Uiso   1.00
N3     N     0.39490   0.54150   0.61238   0.00000  Uiso   1.00
N4     N     0.60509   0.45850   0.61238   0.00000  Uiso   1.00
C5     C     0.44705   0.52109   0.61238   0.00000  Uiso   1.00
C6     C     0.55295   0.47891   0.61238   0.00000  Uiso   1.00
C7     C     0.42586   0.44697   0.61238   0.00000  Uiso   1.00
C8     C     0.57414   0.55303   0.61238   0.00000  Uiso   1.00
C9     C     0.47886   0.42587   0.61238   0.00000  Uiso   1.00
C10    C     0.52114   0.57413   0.61238   0.00000  Uiso   1.00
H11    H     0.47005   0.65347   0.61238   0.00000  Uiso   1.00
H12    H     0.52995   0.34653   0.61238   0.00000  Uiso   1.00
H13    H     0.62885   0.59210   0.61238   0.00000  Uiso   1.00
H14    H     0.46322   0.37094   0.61238   0.00000  Uiso   1.00
H15    H     0.53678   0.62906   0.61238   0.00000  Uiso   1.00
H16    H     0.65843   0.49687   0.61238   0.00000  Uiso   1.00
H17    H     0.34157   0.50313   0.61238   0.00000  Uiso   1.00
S18    S     0.33871   0.38474   0.61238   0.00000  Uiso   1.00
O19    O     0.33177   0.32014   0.61238   0.00000  Uiso   1.00
O20    O     0.30777   0.39251   0.28809   0.00000  Uiso   1.00
O21    O     0.30538   0.39310   0.96159   0.00000  Uiso   1.00
H22    H     0.25915   0.36013   0.96172   0.00000  Uiso   1.00
C23    C     0.69559   0.40247   0.61238   0.00000  Uiso   1.00
C24    C     0.62548   0.36291   0.61238   0.00000  Uiso   1.00
C25    C     0.30441   0.59753   0.61238   0.00000  Uiso   1.00
C26    C     0.37452   0.63709   0.61238   0.00000  Uiso   1.00
O27    O     0.72044   0.45958   0.61238   0.00000  Uiso   1.00
O28    O     0.27956   0.54042   0.61238   0.00000  Uiso   1.00
C29    C     0.38594   0.80119   0.61238   0.00000  Uiso   1.00
C30    C     0.61406   1.19881   0.61238   0.00000  Uiso   1.00
N31    N     0.45850   0.85340   0.61238   0.00000  Uiso   1.00
N32    N     0.54150   1.14659   0.61238   0.00000  Uiso   1.00
C33    C     0.47891   0.92596   0.61238   0.00000  Uiso   1.00
C34    C     0.52109   1.07404   0.61238   0.00000  Uiso   1.00
C35    C     0.55303   0.97889   0.61238   0.00000  Uiso   1.00
C36    C     0.44697   1.02111   0.61238   0.00000  Uiso   1.00
C37    C     0.57413   1.05299   0.61238   0.00000  Uiso   1.00
C38    C     0.42587   0.94701   0.61238   0.00000  Uiso   1.00
H39    H     0.34653   0.81658   0.61238   0.00000  Uiso   1.00
H40    H     0.65347   1.18342   0.61238   0.00000  Uiso   1.00
H41    H     0.40790   1.03675   0.61238   0.00000  Uiso   1.00
H42    H     0.62906   1.09228   0.61238   0.00000  Uiso   1.00
H43    H     0.37094   0.90772   0.61238   0.00000  Uiso   1.00
H44    H     0.50313   1.16155   0.61238   0.00000  Uiso   1.00
H45    H     0.49687   0.83845   0.61238   0.00000  Uiso   1.00
S46    S     0.61526   0.95397   0.61238   0.00000  Uiso   1.00
O47    O     0.67986   1.01163   0.61238   0.00000  Uiso   1.00
O48    O     0.60749   0.91526   0.28809   0.00000  Uiso   1.00
O49    O     0.60690   0.91228   0.96159   0.00000  Uiso   1.00
H50    H     0.63987   0.89902   0.96172   0.00000  Uiso   1.00
C51    C     0.59753   1.29312   0.61238   0.00000  Uiso   1.00
C52    C     0.63709   1.26258   0.61238   0.00000  Uiso   1.00
C53    C     0.40247   0.70688   0.61238   0.00000  Uiso   1.00
C54    C     0.36291   0.73742   0.61238   0.00000  Uiso   1.00
O55    O     0.54042   1.26086   0.61238   0.00000  Uiso   1.00
O56    O     0.45958   0.73914   0.61238   0.00000  Uiso   1.00
C57    C     0.19881   0.58475   0.61238   0.00000  Uiso   1.00
C58    C    -0.19881   0.41525   0.61238   0.00000  Uiso   1.00
N59    N     0.14660   0.60510   0.61238   0.00000  Uiso   1.00
N60    N    -0.14659   0.39491   0.61238   0.00000  Uiso   1.00
C61    C     0.07404   0.55295   0.61238   0.00000  Uiso   1.00
C62    C    -0.07404   0.44705   0.61238   0.00000  Uiso   1.00
C63    C     0.02111   0.57414   0.61238   0.00000  Uiso   1.00
C64    C    -0.02111   0.42586   0.61238   0.00000  Uiso   1.00
C65    C    -0.05299   0.52114   0.61238   0.00000  Uiso   1.00
C66    C     0.05299   0.47886   0.61238   0.00000  Uiso   1.00
H67    H     0.18342   0.52995   0.61238   0.00000  Uiso   1.00
H68    H    -0.18342   0.47005   0.61238   0.00000  Uiso   1.00
H69    H    -0.03675   0.37115   0.61238   0.00000  Uiso   1.00
H70    H    -0.09228   0.53678   0.61238   0.00000  Uiso   1.00
H71    H     0.09228   0.46322   0.61238   0.00000  Uiso   1.00
H72    H    -0.16155   0.34157   0.61238   0.00000  Uiso   1.00
H73    H     0.16155   0.65843   0.61238   0.00000  Uiso   1.00
S74    S     0.04603   0.66129   0.61238   0.00000  Uiso   1.00
O75    O    -0.01163   0.66823   0.61238   0.00000  Uiso   1.00
O76    O     0.08474   0.69223   0.28809   0.00000  Uiso   1.00
O77    O     0.08772   0.69462   0.96159   0.00000  Uiso   1.00
H78    H     0.10098   0.74085   0.96172   0.00000  Uiso   1.00
C79    C    -0.29312   0.30441   0.61238   0.00000  Uiso   1.00
C80    C    -0.26258   0.37452   0.61238   0.00000  Uiso   1.00
C81    C     0.29312   0.69559   0.61238   0.00000  Uiso   1.00
C82    C     0.26258   0.62548   0.61238   0.00000  Uiso   1.00
O83    O    -0.26086   0.27956   0.61238   0.00000  Uiso   1.00
O84    O     0.26086   0.72044   0.61238   0.00000  Uiso   1.00
loop_
_geom_bond_atom_site_label_1
_geom_bond_atom_site_label_2
_geom_bond_distance
_geom_bond_site_symmetry_2
_ccdc_geom_bond_type
C1     H11     1.140   .     S
C1     C26     1.302   .     S
C1     N3      1.509   .     S
C2     N4      1.509   .     S
C2     C24     1.302   .     S
C2     H12     1.140   .     S
N3     C5      1.509   .     S
N3     H17     1.109   .     S
N4     C6      1.509   .     S
N4     H16     1.109   .     S
C5     C10     1.540   .     S
C5     C7      1.540   .     S
C6     C8      1.540   .     S
C6     C9      1.540   .     S
C7     S18     1.810   .     S
C7     C9      1.540   .     S
C8     C10     1.540   .     S
C8     H13     1.136   .     S
C9     H14     1.141   .     S
C10    H15     1.141   .     S
S18    O20     1.352   .     S
S18    O19     1.430   .     S
S18    O21     1.456   .     S
O21    H22     0.960   .     S
C23    C24     1.417   .     S
C23    O27     1.155   .     S
C25    C26     1.417   .     S
C25    C82     1.416   .     S
C25    O28     1.155   .     S
C26    C53     1.416   .     S
C29    H39     1.140   .     S
C29    C54     1.302   .     S
C29    N31     1.509   .     S
C30    C52     1.302   .     S
C30    H40     1.140   .     S
C30    N32     1.509   .     S
N31    C33     1.509   .     S
N31    H45     1.109   .     S
N32    C34     1.509   .     S
N32    H44     1.109   .     S
C33    C38     1.540   .     S
C33    C35     1.540   .     S
C34    C36     1.540   .     S
C34    C37     1.540   .     S
C35    C37     1.540   .     S
C35    S46     1.810   .     S
C36    H41     1.136   .     S
C36    C38     1.540   .     S
C37    H42     1.141   .     S
C38    H43     1.141   .     S
S46    O47     1.430   .     S
S46    O48     1.352   .     S
S46    O49     1.456   .     S
O49    H50     0.960   .     S
C51    O55     1.155   .     S
C51    C52     1.417   .     S
C53    O56     1.155   .     S
C53    C54     1.417   .     S
C54    C81     1.416   .     S
C57    H67     1.140   .     S
C57    C82     1.302   .     S
C57    N59     1.509   .     S
C58    N60     1.509   .     S
C58    H68     1.140   .     S
C58    C80     1.302   .     S
N59    H73     1.109   .     S
N59    C61     1.509   .     S
N60    C62     1.509   .     S
N60    H72     1.109   .     S
C61    C66     1.540   .     S
C61    C63     1.540   .     S
C62    C64     1.540   .     S
C62    C65     1.540   .     S
C63    C65     1.540   .     S
C63    S74     1.810   .     S
C64    H69     1.136   .     S
C64    C66     1.540   .     S
C65    H70     1.141   .     S
C66    H71     1.141   .     S
S74    O76     1.352   .     S
S74    O75     1.430   .     S
S74    O77     1.456   .     S
O77    H78     0.960   .     S
C79    O83     1.155   .     S
C79    C80     1.417   .     S
C81    C82     1.417   .     S
C81    O84     1.155   .     S
