data_TpPa-SO3H-Py
_audit_creation_date              2016-12-13
_audit_creation_method            'Materials Studio'
_symmetry_space_group_name_H-M    'P1'
_symmetry_Int_Tables_number       1
_symmetry_cell_setting            triclinic
loop_
_symmetry_equiv_pos_as_xyz
  x,y,z
_cell_length_a                    3.3000
_cell_length_b                    46.5646
_cell_length_c                    46.5646
_cell_angle_alpha                 60.0000
_cell_angle_beta                  90.0000
_cell_angle_gamma                 90.0000
loop_
_atom_site_label
_atom_site_type_symbol
_atom_site_fract_x
_atom_site_fract_y
_atom_site_fract_z
_atom_site_U_iso_or_equiv
_atom_site_adp_type
_atom_site_occupancy
C1     C    -0.61238   0.30704  -0.09940   0.00000  Uiso   1.00
C2     C    -0.61238   0.19298   0.09941   0.00000  Uiso   1.00
C3     C    -0.61238   0.40060  -0.20762   0.00000  Uiso   1.00
C4     C    -0.61238   0.09942   0.20763   0.00000  Uiso   1.00
C5     C    -0.61238   0.29238  -0.19296   0.00000  Uiso   1.00
C6     C    -0.61238   0.20764   0.19297   0.00000  Uiso   1.00
C7     C    -0.61238   0.30704   0.40060   0.00000  Uiso   1.00
C8     C    -0.61238   0.19298   0.59941   0.00000  Uiso   1.00
C9     C    -0.61238   0.40060   0.29238   0.00000  Uiso   1.00
C10    C    -0.61238   0.09942   0.70763   0.00000  Uiso   1.00
C11    C    -0.61238   0.29238   0.30704   0.00000  Uiso   1.00
C12    C    -0.61238   0.20764   0.69297   0.00000  Uiso   1.00
C13    C    -0.61238   0.80704  -0.59940   0.00000  Uiso   1.00
C14    C    -0.61238   0.69298  -0.40059   0.00000  Uiso   1.00
C15    C    -0.61238   0.90060  -0.70762   0.00000  Uiso   1.00
C16    C    -0.61238   0.59942  -0.29237   0.00000  Uiso   1.00
C17    C    -0.61238   0.79238  -0.69296   0.00000  Uiso   1.00
C18    C    -0.61238   0.70764  -0.30702   0.00000  Uiso   1.00
C19    C    -0.61238   0.80704  -0.09940   0.00000  Uiso   1.00
C20    C    -0.61238   0.69298   0.09941   0.00000  Uiso   1.00
C21    C    -0.61238   0.90060  -0.20762   0.00000  Uiso   1.00
C22    C    -0.61238   0.59942   0.20763   0.00000  Uiso   1.00
C23    C    -0.61238   0.79238  -0.19296   0.00000  Uiso   1.00
C24    C    -0.61238   0.70764   0.19297   0.00000  Uiso   1.00
N25    N    -0.61238   0.27076  -0.07329   0.00000  Uiso   1.00
N26    N    -0.61238   0.22926   0.07330   0.00000  Uiso   1.00
N27    N    -0.61238   0.42671  -0.19745   0.00000  Uiso   1.00
N28    N    -0.61238   0.07331   0.19746   0.00000  Uiso   1.00
N29    N    -0.61238   0.30256  -0.22924   0.00000  Uiso   1.00
N30    N    -0.61238   0.19746   0.22926   0.00000  Uiso   1.00
N31    N    -0.61238   0.27076   0.42671   0.00000  Uiso   1.00
N32    N    -0.61238   0.22926   0.57330   0.00000  Uiso   1.00
N33    N    -0.61238   0.42671   0.30255   0.00000  Uiso   1.00
N34    N    -0.61238   0.07331   0.69746   0.00000  Uiso   1.00
N35    N    -0.61238   0.30256   0.27076   0.00000  Uiso   1.00
N36    N    -0.61238   0.19746   0.72926   0.00000  Uiso   1.00
N37    N    -0.61238   0.77076  -0.57329   0.00000  Uiso   1.00
N38    N    -0.61238   0.72926  -0.42670   0.00000  Uiso   1.00
N39    N    -0.61238   0.92671  -0.69745   0.00000  Uiso   1.00
N40    N    -0.61238   0.57331  -0.30254   0.00000  Uiso   1.00
N41    N    -0.61238   0.80256  -0.72924   0.00000  Uiso   1.00
N42    N    -0.61238   0.69746  -0.27074   0.00000  Uiso   1.00
N43    N    -0.61238   0.77076  -0.07329   0.00000  Uiso   1.00
N44    N    -0.61238   0.72926   0.07330   0.00000  Uiso   1.00
N45    N    -0.61238   0.92671  -0.19745   0.00000  Uiso   1.00
N46    N    -0.61238   0.57331   0.19746   0.00000  Uiso   1.00
N47    N    -0.61238   0.80256  -0.22924   0.00000  Uiso   1.00
N48    N    -0.61238   0.69746   0.22926   0.00000  Uiso   1.00
C49    C    -0.61238   0.26056  -0.03701   0.00000  Uiso   1.00
C50    C    -0.61238   0.23947   0.03703   0.00000  Uiso   1.00
C51    C    -0.61238   0.46299  -0.22352   0.00000  Uiso   1.00
C52    C    -0.61238   0.03703   0.22353   0.00000  Uiso   1.00
C53    C    -0.61238   0.27648  -0.23945   0.00000  Uiso   1.00
C54    C    -0.61238   0.22354   0.23946   0.00000  Uiso   1.00
C55    C    -0.61238   0.26056   0.46299   0.00000  Uiso   1.00
C56    C    -0.61238   0.23947   0.53703   0.00000  Uiso   1.00
C57    C    -0.61238   0.46299   0.27648   0.00000  Uiso   1.00
C58    C    -0.61238   0.03703   0.72353   0.00000  Uiso   1.00
C59    C    -0.61238   0.27648   0.26055   0.00000  Uiso   1.00
C60    C    -0.61238   0.22354   0.73946   0.00000  Uiso   1.00
C61    C    -0.61238   0.76055  -0.53701   0.00000  Uiso   1.00
C62    C    -0.61238   0.73947  -0.46297   0.00000  Uiso   1.00
C63    C    -0.61238   0.96299  -0.72352   0.00000  Uiso   1.00
C64    C    -0.61238   0.53703  -0.27647   0.00000  Uiso   1.00
C65    C    -0.61238   0.77648  -0.73945   0.00000  Uiso   1.00
C66    C    -0.61238   0.72354  -0.26054   0.00000  Uiso   1.00
C67    C    -0.61238   0.76055  -0.03701   0.00000  Uiso   1.00
C68    C    -0.61238   0.73947   0.03703   0.00000  Uiso   1.00
C69    C    -0.61238   0.96299  -0.22352   0.00000  Uiso   1.00
C70    C    -0.61238   0.53703   0.22353   0.00000  Uiso   1.00
C71    C    -0.61238   0.77648  -0.23945   0.00000  Uiso   1.00
C72    C    -0.61238   0.72354   0.23946   0.00000  Uiso   1.00
C73    C    -0.61238   0.22349  -0.01055   0.00000  Uiso   1.00
C74    C    -0.61238   0.27653   0.01056   0.00000  Uiso   1.00
N75    N    -0.61238   0.48946  -0.21292   0.00000  Uiso   1.00
C76    C    -0.61238   0.01056   0.21294   0.00000  Uiso   1.00
N77    N    -0.61238   0.28708  -0.27651   0.00000  Uiso   1.00
C78    C    -0.61238   0.21294   0.27652   0.00000  Uiso   1.00
N79    N    -0.61238   0.22349   0.48945   0.00000  Uiso   1.00
C80    C    -0.61238   0.27653   0.51056   0.00000  Uiso   1.00
C81    C    -0.61238   0.48946   0.28708   0.00000  Uiso   1.00
C82    C    -0.61238   0.01056   0.71294   0.00000  Uiso   1.00
N83    N    -0.61238   0.28708   0.22349   0.00000  Uiso   1.00
C84    C    -0.61238   0.21294   0.77652   0.00000  Uiso   1.00
N85    N    -0.61238   0.72349  -0.51055   0.00000  Uiso   1.00
C86    C    -0.61238   0.77653  -0.48944   0.00000  Uiso   1.00
C87    C    -0.61238   0.98946  -0.71292   0.00000  Uiso   1.00
C88    C    -0.61238   0.51056  -0.28706   0.00000  Uiso   1.00
N89    N    -0.61238   0.78708  -0.77651   0.00000  Uiso   1.00
C90    C    -0.61238   0.71294  -0.22348   0.00000  Uiso   1.00
N91    N    -0.61238   0.72349  -0.01055   0.00000  Uiso   1.00
C92    C    -0.61238   0.77653   0.01056   0.00000  Uiso   1.00
N93    N    -0.61238   0.98946  -0.21292   0.00000  Uiso   1.00
C94    C    -0.61238   0.51056   0.21294   0.00000  Uiso   1.00
C95    C    -0.61238   0.78708  -0.27651   0.00000  Uiso   1.00
C96    C    -0.61238   0.71294   0.27652   0.00000  Uiso   1.00
C97    C    -0.61238   0.21295   0.02650   0.00000  Uiso   1.00
C98    C    -0.61238   0.28707  -0.02649   0.00000  Uiso   1.00
C99    C    -0.61238   0.02651   0.26058   0.00000  Uiso   1.00
C100   C    -0.61238   0.47351  -0.26056   0.00000  Uiso   1.00
C101   C    -0.61238   0.26058   0.21294   0.00000  Uiso   1.00
C102   C    -0.61238   0.23944  -0.21293   0.00000  Uiso   1.00
C103   C    -0.61238   0.21295   0.52650   0.00000  Uiso   1.00
C104   C    -0.61238   0.28707   0.47351   0.00000  Uiso   1.00
C105   C    -0.61238   0.02651   0.76058   0.00000  Uiso   1.00
C106   C    -0.61238   0.47351   0.23944   0.00000  Uiso   1.00
C107   C    -0.61238   0.26058   0.71294   0.00000  Uiso   1.00
C108   C    -0.61238   0.23944   0.28707   0.00000  Uiso   1.00
C109   C    -0.61238   0.71295  -0.47350   0.00000  Uiso   1.00
C110   C    -0.61238   0.78707  -0.52649   0.00000  Uiso   1.00
C111   C    -0.61238   0.52651  -0.23942   0.00000  Uiso   1.00
C112   C    -0.61238   0.97351  -0.76056   0.00000  Uiso   1.00
C113   C    -0.61238   0.76058  -0.28706   0.00000  Uiso   1.00
C114   C    -0.61238   0.73944  -0.71293   0.00000  Uiso   1.00
C115   C    -0.61238   0.71295   0.02650   0.00000  Uiso   1.00
C116   C    -0.61238   0.78707  -0.02649   0.00000  Uiso   1.00
C117   C    -0.61238   0.52651   0.26058   0.00000  Uiso   1.00
C118   C    -0.61238   0.97351  -0.26056   0.00000  Uiso   1.00
C119   C    -0.61238   0.76058   0.21294   0.00000  Uiso   1.00
C120   C    -0.61238   0.73944  -0.21293   0.00000  Uiso   1.00
H121   H    -0.61238   0.32675  -0.09170   0.00000  Uiso   1.00
H122   H    -0.61238   0.17327   0.09172   0.00000  Uiso   1.00
H123   H    -0.61238   0.40830  -0.23502   0.00000  Uiso   1.00
H124   H    -0.61238   0.09172   0.23503   0.00000  Uiso   1.00
H125   H    -0.61238   0.26498  -0.17326   0.00000  Uiso   1.00
H126   H    -0.61238   0.23504   0.17327   0.00000  Uiso   1.00
H127   H    -0.61238   0.32675   0.40830   0.00000  Uiso   1.00
H128   H    -0.61238   0.17327   0.59172   0.00000  Uiso   1.00
H129   H    -0.61238   0.40830   0.26498   0.00000  Uiso   1.00
H130   H    -0.61238   0.09172   0.73503   0.00000  Uiso   1.00
H131   H    -0.61238   0.26498   0.32674   0.00000  Uiso   1.00
H132   H    -0.61238   0.23504   0.67327   0.00000  Uiso   1.00
H133   H    -0.61238   0.82675  -0.59170   0.00000  Uiso   1.00
H134   H    -0.61238   0.67327  -0.40828   0.00000  Uiso   1.00
H135   H    -0.61238   0.90830  -0.73502   0.00000  Uiso   1.00
H136   H    -0.61238   0.59172  -0.26497   0.00000  Uiso   1.00
H137   H    -0.61238   0.76498  -0.67326   0.00000  Uiso   1.00
H138   H    -0.61238   0.73504  -0.32673   0.00000  Uiso   1.00
H139   H    -0.61238   0.82675  -0.09170   0.00000  Uiso   1.00
H140   H    -0.61238   0.67327   0.09172   0.00000  Uiso   1.00
H141   H    -0.61238   0.90830  -0.23502   0.00000  Uiso   1.00
H142   H    -0.61238   0.59172   0.23503   0.00000  Uiso   1.00
H143   H    -0.61238   0.76498  -0.17326   0.00000  Uiso   1.00
H144   H    -0.61238   0.73504   0.17327   0.00000  Uiso   1.00
H145   H    -0.61238   0.29606   0.01838   0.00000  Uiso   1.00
H146   H    -0.61238   0.01839   0.18558   0.00000  Uiso   1.00
H147   H    -0.61238   0.18558   0.29606   0.00000  Uiso   1.00
H148   H    -0.61238   0.29606   0.51838   0.00000  Uiso   1.00
H149   H    -0.61238   0.01839   0.68558   0.00000  Uiso   1.00
H150   H    -0.61238   0.18558   0.79606   0.00000  Uiso   1.00
H151   H    -0.61238   0.79606  -0.48162   0.00000  Uiso   1.00
H152   H    -0.61238   0.51839  -0.31442   0.00000  Uiso   1.00
H153   H    -0.61238   0.68558  -0.20394   0.00000  Uiso   1.00
H154   H    -0.61238   0.79606   0.01838   0.00000  Uiso   1.00
H155   H    -0.61238   0.51839   0.18558   0.00000  Uiso   1.00
H156   H    -0.61238   0.68558   0.29606   0.00000  Uiso   1.00
H157   H    -0.61238   0.18548   0.04615   0.00000  Uiso   1.00
H158   H    -0.61238   0.31454  -0.04613   0.00000  Uiso   1.00
H159   H    -0.61238   0.04615   0.26840   0.00000  Uiso   1.00
H160   H    -0.61238   0.45387  -0.26838   0.00000  Uiso   1.00
H161   H    -0.61238   0.26840   0.18548   0.00000  Uiso   1.00
H162   H    -0.61238   0.23162  -0.18546   0.00000  Uiso   1.00
H163   H    -0.61238   0.18548   0.54614   0.00000  Uiso   1.00
H164   H    -0.61238   0.31454   0.45387   0.00000  Uiso   1.00
H165   H    -0.61238   0.04615   0.76840   0.00000  Uiso   1.00
H166   H    -0.61238   0.45387   0.23162   0.00000  Uiso   1.00
H167   H    -0.61238   0.26840   0.68548   0.00000  Uiso   1.00
H168   H    -0.61238   0.23162   0.31454   0.00000  Uiso   1.00
H169   H    -0.61238   0.68548  -0.45385   0.00000  Uiso   1.00
H170   H    -0.61238   0.81454  -0.54613   0.00000  Uiso   1.00
H171   H    -0.61238   0.54615  -0.23160   0.00000  Uiso   1.00
H172   H    -0.61238   0.95387  -0.76838   0.00000  Uiso   1.00
H173   H    -0.61238   0.76840  -0.31452   0.00000  Uiso   1.00
H174   H    -0.61238   0.73162  -0.68546   0.00000  Uiso   1.00
H175   H    -0.61238   0.68548   0.04615   0.00000  Uiso   1.00
H176   H    -0.61238   0.81454  -0.04613   0.00000  Uiso   1.00
H177   H    -0.61238   0.54615   0.26840   0.00000  Uiso   1.00
H178   H    -0.61238   0.95387  -0.26838   0.00000  Uiso   1.00
H179   H    -0.61238   0.76840   0.18548   0.00000  Uiso   1.00
H180   H    -0.61238   0.73162  -0.18546   0.00000  Uiso   1.00
H181   H    -0.61238   0.24845   0.08078   0.00000  Uiso   1.00
H182   H    -0.61238   0.25157  -0.08077   0.00000  Uiso   1.00
H183   H    -0.61238   0.08079   0.17079   0.00000  Uiso   1.00
H184   H    -0.61238   0.41923  -0.17078   0.00000  Uiso   1.00
H185   H    -0.61238   0.17080   0.24844   0.00000  Uiso   1.00
H186   H    -0.61238   0.32922  -0.24843   0.00000  Uiso   1.00
H187   H    -0.61238   0.24845   0.58078   0.00000  Uiso   1.00
H188   H    -0.61238   0.25157   0.41923   0.00000  Uiso   1.00
H189   H    -0.61238   0.08079   0.67079   0.00000  Uiso   1.00
H190   H    -0.61238   0.41923   0.32922   0.00000  Uiso   1.00
H191   H    -0.61238   0.17080   0.74844   0.00000  Uiso   1.00
H192   H    -0.61238   0.32922   0.25157   0.00000  Uiso   1.00
H193   H    -0.61238   0.74845  -0.41922   0.00000  Uiso   1.00
H194   H    -0.61238   0.75157  -0.58077   0.00000  Uiso   1.00
H195   H    -0.61238   0.58079  -0.32921   0.00000  Uiso   1.00
H196   H    -0.61238   0.91923  -0.67078   0.00000  Uiso   1.00
H197   H    -0.61238   0.67080  -0.25156   0.00000  Uiso   1.00
H198   H    -0.61238   0.82922  -0.74843   0.00000  Uiso   1.00
H199   H    -0.61238   0.74845   0.08078   0.00000  Uiso   1.00
H200   H    -0.61238   0.75157  -0.08077   0.00000  Uiso   1.00
H201   H    -0.61238   0.58079   0.17079   0.00000  Uiso   1.00
H202   H    -0.61238   0.91923  -0.17078   0.00000  Uiso   1.00
H203   H    -0.61238   0.67080   0.24844   0.00000  Uiso   1.00
H204   H    -0.61238   0.82922  -0.24843   0.00000  Uiso   1.00
S205   S    -0.61238   0.19238  -0.02301   0.00000  Uiso   1.00
O206   O    -0.61238   0.16008   0.00582   0.00000  Uiso   1.00
O207   O    -0.28809   0.19626  -0.04236   0.00000  Uiso   1.00
O208   O    -0.96159   0.19656  -0.04385   0.00000  Uiso   1.00
H209   H    -0.96172   0.18007  -0.05048   0.00000  Uiso   1.00
S210   S    -0.61238   0.47700   0.33065   0.00000  Uiso   1.00
O211   O    -0.28809   0.45764   0.34612   0.00000  Uiso   1.00
O212   O    -0.96159   0.45615   0.34732   0.00000  Uiso   1.00
H213   H    -0.96172   0.44952   0.37043   0.00000  Uiso   1.00
S214   S    -0.61238   0.97700  -0.66935   0.00000  Uiso   1.00
O215   O    -0.28809   0.95764  -0.65388   0.00000  Uiso   1.00
O216   O    -0.96159   0.95615  -0.65268   0.00000  Uiso   1.00
H217   H    -0.96172   0.94952  -0.62957   0.00000  Uiso   1.00
O218   O    -0.61238   0.83412  -0.33992   0.00000  Uiso   1.00
O219   O    -0.61238   0.50583   0.33412   0.00000  Uiso   1.00
S220   S    -0.61238   0.83065  -0.30762   0.00000  Uiso   1.00
O221   O    -0.28809   0.84613  -0.30374   0.00000  Uiso   1.00
O222   O    -0.96159   0.84732  -0.30344   0.00000  Uiso   1.00
H223   H    -0.96172   0.87043  -0.31993   0.00000  Uiso   1.00
C224   C    -0.61238   0.20125   0.14657   0.00000  Uiso   1.00
C225   C    -0.61238   0.18146   0.13130   0.00000  Uiso   1.00
C226   C    -0.61238   0.29878  -0.14655   0.00000  Uiso   1.00
C227   C    -0.61238   0.31856  -0.13128   0.00000  Uiso   1.00
C228   C    -0.61238   0.14657   0.15221   0.00000  Uiso   1.00
C229   C    -0.61238   0.13130   0.18726   0.00000  Uiso   1.00
C230   C    -0.61238   0.35345  -0.15220   0.00000  Uiso   1.00
C231   C    -0.61238   0.36872  -0.18725   0.00000  Uiso   1.00
C232   C    -0.61238   0.15222   0.20124   0.00000  Uiso   1.00
C233   C    -0.61238   0.18727   0.18146   0.00000  Uiso   1.00
C234   C    -0.61238   0.34780  -0.20123   0.00000  Uiso   1.00
C235   C    -0.61238   0.31275  -0.18145   0.00000  Uiso   1.00
C236   C    -0.61238   0.20125   0.64657   0.00000  Uiso   1.00
C237   C    -0.61238   0.18146   0.63130   0.00000  Uiso   1.00
C238   C    -0.61238   0.29878   0.35345   0.00000  Uiso   1.00
C239   C    -0.61238   0.31856   0.36872   0.00000  Uiso   1.00
C240   C    -0.61238   0.14657   0.65221   0.00000  Uiso   1.00
C241   C    -0.61238   0.13130   0.68726   0.00000  Uiso   1.00
C242   C    -0.61238   0.35345   0.34780   0.00000  Uiso   1.00
C243   C    -0.61238   0.36872   0.31275   0.00000  Uiso   1.00
C244   C    -0.61238   0.15222   0.70124   0.00000  Uiso   1.00
C245   C    -0.61238   0.18727   0.68146   0.00000  Uiso   1.00
C246   C    -0.61238   0.34780   0.29877   0.00000  Uiso   1.00
C247   C    -0.61238   0.31275   0.31855   0.00000  Uiso   1.00
C248   C    -0.61238   0.70124  -0.35343   0.00000  Uiso   1.00
C249   C    -0.61238   0.68146  -0.36870   0.00000  Uiso   1.00
C250   C    -0.61238   0.79878  -0.64655   0.00000  Uiso   1.00
C251   C    -0.61238   0.81856  -0.63128   0.00000  Uiso   1.00
C252   C    -0.61238   0.64657  -0.34779   0.00000  Uiso   1.00
C253   C    -0.61238   0.63130  -0.31273   0.00000  Uiso   1.00
C254   C    -0.61238   0.85345  -0.65220   0.00000  Uiso   1.00
C255   C    -0.61238   0.86872  -0.68725   0.00000  Uiso   1.00
C256   C    -0.61238   0.65222  -0.29876   0.00000  Uiso   1.00
C257   C    -0.61238   0.68727  -0.31854   0.00000  Uiso   1.00
C258   C    -0.61238   0.84780  -0.70123   0.00000  Uiso   1.00
C259   C    -0.61238   0.81275  -0.68145   0.00000  Uiso   1.00
C260   C    -0.61238   0.70124   0.14657   0.00000  Uiso   1.00
C261   C    -0.61238   0.68146   0.13130   0.00000  Uiso   1.00
C262   C    -0.61238   0.79878  -0.14655   0.00000  Uiso   1.00
C263   C    -0.61238   0.81856  -0.13128   0.00000  Uiso   1.00
C264   C    -0.61238   0.64657   0.15221   0.00000  Uiso   1.00
C265   C    -0.61238   0.63130   0.18726   0.00000  Uiso   1.00
C266   C    -0.61238   0.85345  -0.15220   0.00000  Uiso   1.00
C267   C    -0.61238   0.86872  -0.18725   0.00000  Uiso   1.00
C268   C    -0.61238   0.65222   0.20124   0.00000  Uiso   1.00
C269   C    -0.61238   0.68727   0.18146   0.00000  Uiso   1.00
C270   C    -0.61238   0.84780  -0.20123   0.00000  Uiso   1.00
C271   C    -0.61238   0.81275  -0.18145   0.00000  Uiso   1.00
O272   O    -0.61238   0.22980   0.13044   0.00000  Uiso   1.00
O273   O    -0.61238   0.27022  -0.13042   0.00000  Uiso   1.00
O274   O    -0.61238   0.13044   0.13979   0.00000  Uiso   1.00
O275   O    -0.61238   0.36958  -0.13977   0.00000  Uiso   1.00
O276   O    -0.61238   0.13979   0.22980   0.00000  Uiso   1.00
O277   O    -0.61238   0.36023  -0.22978   0.00000  Uiso   1.00
O278   O    -0.61238   0.22980   0.63044   0.00000  Uiso   1.00
O279   O    -0.61238   0.27022   0.36958   0.00000  Uiso   1.00
O280   O    -0.61238   0.13044   0.63979   0.00000  Uiso   1.00
O281   O    -0.61238   0.36958   0.36023   0.00000  Uiso   1.00
O282   O    -0.61238   0.13979   0.72980   0.00000  Uiso   1.00
O283   O    -0.61238   0.36023   0.27022   0.00000  Uiso   1.00
O284   O    -0.61238   0.72980  -0.36956   0.00000  Uiso   1.00
O285   O    -0.61238   0.77022  -0.63042   0.00000  Uiso   1.00
O286   O    -0.61238   0.63044  -0.36021   0.00000  Uiso   1.00
O287   O    -0.61238   0.86958  -0.63977   0.00000  Uiso   1.00
O288   O    -0.61238   0.63979  -0.27020   0.00000  Uiso   1.00
O289   O    -0.61238   0.86023  -0.72978   0.00000  Uiso   1.00
O290   O    -0.61238   0.72980   0.13044   0.00000  Uiso   1.00
O291   O    -0.61238   0.77022  -0.13042   0.00000  Uiso   1.00
O292   O    -0.61238   0.63044   0.13979   0.00000  Uiso   1.00
O293   O    -0.61238   0.86958  -0.13977   0.00000  Uiso   1.00
O294   O    -0.61238   0.63979   0.22980   0.00000  Uiso   1.00
O295   O    -0.61238   0.86023  -0.22978   0.00000  Uiso   1.00
loop_
_geom_bond_atom_site_label_1
_geom_bond_atom_site_label_2
_geom_bond_distance
_geom_bond_site_symmetry_2
_ccdc_geom_bond_type
C1     H121    1.140   .     S
C1     N25     1.509   .     S
C1     C227    1.302   .     S
C2     H122    1.140   .     S
C2     N26     1.509   .     S
C2     C225    1.302   .     S
C3     H123    1.140   .     S
C3     C231    1.302   .     S
C3     N27     1.509   .     S
C4     N28     1.509   .     S
C4     H124    1.140   .     S
C4     C229    1.302   .     S
C5     N29     1.509   .     S
C5     C235    1.302   .     S
C5     H125    1.140   .     S
C6     C233    1.302   .     S
C6     N30     1.509   .     S
C6     H126    1.140   .     S
C7     C239    1.302   .     S
C7     H127    1.140   .     S
C7     N31     1.509   .     S
C8     C237    1.302   .     S
C8     N32     1.509   .     S
C8     H128    1.140   .     S
C9     H129    1.140   .     S
C9     N33     1.509   .     S
C9     C243    1.302   .     S
C10    N34     1.509   .     S
C10    C241    1.302   .     S
C10    H130    1.140   .     S
C11    H131    1.140   .     S
C11    C247    1.302   .     S
C11    N35     1.509   .     S
C12    C245    1.302   .     S
C12    H132    1.140   .     S
C12    N36     1.509   .     S
C13    C251    1.302   .     S
C13    H133    1.140   .     S
C13    N37     1.509   .     S
C14    H134    1.140   .     S
C14    C249    1.302   .     S
C14    N38     1.509   .     S
C15    C255    1.302   .     S
C15    N39     1.509   .     S
C15    H135    1.140   .     S
C16    H136    1.140   .     S
C16    C253    1.302   .     S
C16    N40     1.509   .     S
C17    H137    1.140   .     S
C17    C259    1.302   .     S
C17    N41     1.509   .     S
C18    C257    1.302   .     S
C18    H138    1.140   .     S
C18    N42     1.509   .     S
C19    N43     1.509   .     S
C19    H139    1.140   .     S
C19    C263    1.302   .     S
C20    N44     1.509   .     S
C20    H140    1.140   .     S
C20    C261    1.302   .     S
C21    H141    1.140   .     S
C21    C267    1.302   .     S
C21    N45     1.509   .     S
C22    N46     1.509   .     S
C22    H142    1.140   .     S
C22    C265    1.302   .     S
C23    N47     1.509   .     S
C23    C271    1.302   .     S
C23    H143    1.140   .     S
C24    N48     1.509   .     S
C24    C269    1.302   .     S
C24    H144    1.140   .     S
N25    H182    1.109   .     S
N25    C49     1.509   .     S
N26    H181    1.109   .     S
N26    C50     1.509   .     S
N27    C51     1.509   .     S
N27    H184    1.109   .     S
N28    C52     1.509   .     S
N28    H183    1.109   .     S
N29    C53     1.509   .     S
N29    H186    1.109   .     S
N30    C54     1.509   .     S
N30    H185    1.109   .     S
N31    C55     1.509   .     S
N31    H188    1.109   .     S
N32    H187    1.109   .     S
N32    C56     1.509   .     S
N33    H190    1.109   .     S
N33    C57     1.509   .     S
N34    H189    1.109   .     S
N34    C58     1.509   .     S
N35    H192    1.109   .     S
N35    C59     1.509   .     S
N36    H191    1.109   .     S
N36    C60     1.509   .     S
N37    C61     1.509   .     S
N37    H194    1.109   .     S
N38    H193    1.109   .     S
N38    C62     1.509   .     S
N39    H196    1.109   .     S
N39    C63     1.509   .     S
N40    H195    1.109   .     S
N40    C64     1.509   .     S
N41    H198    1.109   .     S
N41    C65     1.509   .     S
N42    H197    1.109   .     S
N42    C66     1.509   .     S
N43    H200    1.109   .     S
N43    C67     1.509   .     S
N44    H199    1.109   .     S
N44    C68     1.509   .     S
N45    C69     1.509   .     S
N45    H202    1.109   .     S
N46    C70     1.509   .     S
N46    H201    1.109   .     S
N47    H204    1.109   .     S
N47    C71     1.509   .     S
N48    C72     1.509   .     S
N48    H203    1.109   .     S
C49    C73     1.540   .     S
C49    C98     1.540   .     S
C50    C74     1.540   .     S
C50    C97     1.540   .     S
C51    N75     1.540   .     S
C51    C100    1.540   .     S
C52    C76     1.540   .     S
C52    C99     1.540   .     S
C53    N77     1.540   .     S
C53    C102    1.540   .     S
C54    C78     1.540   .     S
C54    C101    1.540   .     S
C55    C104    1.540   .     S
C55    N79     1.540   .     S
C56    C80     1.540   .     S
C56    C103    1.540   .     S
C57    C106    1.540   .     S
C57    C81     1.540   .     S
C58    C82     1.540   .     S
C58    C105    1.540   .     S
C59    C108    1.540   .     S
C59    N83     1.540   .     S
C60    C107    1.540   .     S
C60    C84     1.540   .     S
C61    C110    1.540   .     S
C61    N85     1.540   .     S
C62    C109    1.540   .     S
C62    C86     1.540   .     S
C63    C112    1.540   .     S
C63    C87     1.540   .     S
C64    C88     1.540   .     S
C64    C111    1.540   .     S
C65    C114    1.540   .     S
C65    N89     1.540   .     S
C66    C113    1.540   .     S
C66    C90     1.540   .     S
C67    C116    1.540   .     S
C67    N91     1.540   .     S
C68    C115    1.540   .     S
C68    C92     1.540   .     S
C69    N93     1.540   .     S
C69    C118    1.540   .     S
C70    C94     1.540   .     S
C70    C117    1.540   .     S
C71    C95     1.540   .     S
C71    C120    1.540   .     S
C72    C96     1.540   .     S
C72    C119    1.540   .     S
C73    S205    1.810   .     S
C73    C97     1.540   .     S
C74    H145    1.136   .     S
C74    C98     1.540   .     S
N75    C111    1.540   .     S
C76    H146    1.136   .     S
C78    H147    1.136   .     S
C78    C108    1.540   .     S
N79    C103    1.540   .     S
C80    H148    1.136   .     S
C80    C104    1.540   .     S
C81    C117    1.540   .     S
C81    S210    1.810   .     S
C82    H149    1.136   .     S
N83    C101    1.540   .     S
C84    H150    1.136   .     S
N85    C109    1.540   .     S
C86    C110    1.540   .     S
C86    H151    1.136   .     S
C87    S214    1.810   .     S
C88    C100    1.540   .     S
C88    H152    1.136   .     S
C90    H153    1.136   .     S
C90    C120    1.540   .     S
N91    C115    1.540   .     S
C92    H154    1.136   .     S
C92    C116    1.540   .     S
C94    H155    1.136   .     S
C94    C106    1.540   .     S
C95    C113    1.540   .     S
C95    S220    1.810   .     S
C96    H156    1.136   .     S
C97    H157    1.141   .     S
C98    H158    1.141   .     S
C99    H159    1.141   .     S
C100   H160    1.141   .     S
C101   H161    1.141   .     S
C102   H162    1.141   .     S
C103   H163    1.141   .     S
C104   H164    1.141   .     S
C105   H165    1.141   .     S
C106   H166    1.141   .     S
C107   H167    1.141   .     S
C108   H168    1.141   .     S
C109   H169    1.141   .     S
C110   H170    1.141   .     S
C111   H171    1.141   .     S
C112   H172    1.141   .     S
C113   H173    1.141   .     S
C114   H174    1.141   .     S
C115   H175    1.141   .     S
C116   H176    1.141   .     S
C117   H177    1.141   .     S
C118   H178    1.141   .     S
C119   H179    1.141   .     S
C120   H180    1.141   .     S
S205   O207    1.352   .     S
S205   O208    1.456   .     S
S205   O206    1.430   .     S
O208   H209    0.960   .     S
S210   O211    1.352   .     S
S210   O212    1.456   .     S
S210   O219    1.430   .     S
O212   H213    0.960   .     S
S214   O215    1.352   .     S
S214   O216    1.456   .     S
O216   H217    0.960   .     S
O218   S220    1.430   .     S
S220   O221    1.352   .     S
S220   O222    1.456   .     S
O222   H223    0.960   .     S
C224   O272    1.155   .     S
C224   C225    1.417   .     S
C224   C233    1.416   .     S
C225   C228    1.416   .     S
C226   C227    1.417   .     S
C226   O273    1.155   .     S
C226   C235    1.416   .     S
C227   C230    1.416   .     S
C228   O274    1.155   .     S
C228   C229    1.417   .     S
C229   C232    1.416   .     S
C230   O275    1.155   .     S
C230   C231    1.417   .     S
C231   C234    1.416   .     S
C232   O276    1.155   .     S
C232   C233    1.417   .     S
C234   C235    1.417   .     S
C234   O277    1.155   .     S
C236   O278    1.155   .     S
C236   C237    1.417   .     S
C236   C245    1.416   .     S
C237   C240    1.416   .     S
C238   C247    1.416   .     S
C238   C239    1.417   .     S
C238   O279    1.155   .     S
C239   C242    1.416   .     S
C240   O280    1.155   .     S
C240   C241    1.417   .     S
C241   C244    1.416   .     S
C242   C243    1.417   .     S
C242   O281    1.155   .     S
C243   C246    1.416   .     S
C244   C245    1.417   .     S
C244   O282    1.155   .     S
C246   C247    1.417   .     S
C246   O283    1.155   .     S
C248   C257    1.416   .     S
C248   O284    1.155   .     S
C248   C249    1.417   .     S
C249   C252    1.416   .     S
C250   C251    1.417   .     S
C250   O285    1.155   .     S
C250   C259    1.416   .     S
C251   C254    1.416   .     S
C252   C253    1.417   .     S
C252   O286    1.155   .     S
C253   C256    1.416   .     S
C254   O287    1.155   .     S
C254   C255    1.417   .     S
C255   C258    1.416   .     S
C256   C257    1.417   .     S
C256   O288    1.155   .     S
C258   C259    1.417   .     S
C258   O289    1.155   .     S
C260   O290    1.155   .     S
C260   C261    1.417   .     S
C260   C269    1.416   .     S
C261   C264    1.416   .     S
C262   C263    1.417   .     S
C262   O291    1.155   .     S
C262   C271    1.416   .     S
C263   C266    1.416   .     S
C264   O292    1.155   .     S
C264   C265    1.417   .     S
C265   C268    1.416   .     S
C266   O293    1.155   .     S
C266   C267    1.417   .     S
C267   C270    1.416   .     S
C268   O294    1.155   .     S
C268   C269    1.417   .     S
C270   C271    1.417   .     S
C270   O295    1.155   .     S
