data_TpPA-2
_audit_creation_date              2016-12-13
_audit_creation_method            'Materials Studio'
_symmetry_space_group_name_H-M    'P1'
_symmetry_Int_Tables_number       1
_symmetry_cell_setting            triclinic
loop_
_symmetry_equiv_pos_as_xyz
  x,y,z
_cell_length_a                    22.5060
_cell_length_b                    22.5060
_cell_length_c                    3.5000
_cell_angle_alpha                 90.0000
_cell_angle_beta                  90.0000
_cell_angle_gamma                 120.0000
loop_
_atom_site_label
_atom_site_type_symbol
_atom_site_fract_x
_atom_site_fract_y
_atom_site_fract_z
_atom_site_U_iso_or_equiv
_atom_site_adp_type
_atom_site_occupancy
H1     H     0.41048   0.08454   0.25720   0.00000  Uiso   1.00
H2     H     0.91546   0.32594   0.25720   0.00000  Uiso   1.00
H3     H     0.67406   0.58952   0.25720   0.00000  Uiso   1.00
H4     H     0.58952   0.91546   0.25720   0.00000  Uiso   1.00
H5     H     0.08454   0.67406   0.25720   0.00000  Uiso   1.00
H6     H     0.32594   0.41048   0.25720   0.00000  Uiso   1.00
H7     H     0.58952   0.91546  -0.25720   0.00000  Uiso   1.00
H8     H     0.08454   0.67406  -0.25720   0.00000  Uiso   1.00
H9     H     0.32594   0.41048  -0.25720   0.00000  Uiso   1.00
H10    H     0.41048   0.08454  -0.25720   0.00000  Uiso   1.00
H11    H     0.91546   0.32594  -0.25720   0.00000  Uiso   1.00
H12    H     0.67406   0.58952  -0.25720   0.00000  Uiso   1.00
O1     O     0.75767   0.28474   0.00000   0.00000  Uiso   1.00
N1     N     0.55288   0.14095   0.00000   0.00000  Uiso   1.00
C1     C     0.71612   0.30750   0.00000   0.00000  Uiso   1.00
C2     C     0.64138   0.25951   0.00000   0.00000  Uiso   1.00
C3     C     0.61889   0.18979   0.00000   0.00000  Uiso   1.00
C4     C     0.52653   0.07196   0.00000   0.00000  Uiso   1.00
C5     C     0.57020   0.04388   0.00000   0.00000  Uiso   1.00
C6     C     0.45438   0.02665   0.00000   0.00000  Uiso   1.00
C7     C     0.40464   0.05334   0.00000   0.00000  Uiso   1.00
H13    H     0.62629   0.07943   0.00000   0.00000  Uiso   1.00
H14    H     0.65699   0.17217   0.00000   0.00000  Uiso   1.00
H15    H     0.51897   0.16159   0.00000   0.00000  Uiso   1.00
H16    H     0.35038   0.00961   0.00000   0.00000  Uiso   1.00
O2     O     0.71526   0.47293   0.00000   0.00000  Uiso   1.00
N2     N     0.85905   0.41193   0.00000   0.00000  Uiso   1.00
C8     C     0.69250   0.40862   0.00000   0.00000  Uiso   1.00
C9     C     0.74049   0.38187   0.00000   0.00000  Uiso   1.00
C10    C     0.81021   0.42910   0.00000   0.00000  Uiso   1.00
C11    C     0.92804   0.45457   0.00000   0.00000  Uiso   1.00
C12    C     0.95612   0.52632   0.00000   0.00000  Uiso   1.00
C13    C     0.97335   0.42773   0.00000   0.00000  Uiso   1.00
C14    C     0.94666   0.35130   0.00000   0.00000  Uiso   1.00
H17    H     0.92057   0.54686   0.00000   0.00000  Uiso   1.00
H18    H     0.82783   0.48482   0.00000   0.00000  Uiso   1.00
H19    H     0.83841   0.35738   0.00000   0.00000  Uiso   1.00
H20    H     0.99039   0.34077   0.00000   0.00000  Uiso   1.00
O3     O     0.52707   0.24233   0.00000   0.00000  Uiso   1.00
N3     N     0.58807   0.44712   0.00000   0.00000  Uiso   1.00
C15    C     0.59138   0.28388   0.00000   0.00000  Uiso   1.00
C16    C     0.61813   0.35862   0.00000   0.00000  Uiso   1.00
C17    C     0.57090   0.38111   0.00000   0.00000  Uiso   1.00
C18    C     0.54543   0.47347   0.00000   0.00000  Uiso   1.00
C19    C     0.47368   0.42980   0.00000   0.00000  Uiso   1.00
C20    C     0.57227   0.54562   0.00000   0.00000  Uiso   1.00
C21    C     0.64870   0.59536   0.00000   0.00000  Uiso   1.00
H21    H     0.45314   0.37371   0.00000   0.00000  Uiso   1.00
H22    H     0.51518   0.34301   0.00000   0.00000  Uiso   1.00
H23    H     0.64262   0.48103   0.00000   0.00000  Uiso   1.00
H24    H     0.65923   0.64962   0.00000   0.00000  Uiso   1.00
O4     O     0.24233   0.71526   0.00000   0.00000  Uiso   1.00
N4     N     0.44712   0.85905   0.00000   0.00000  Uiso   1.00
C22    C     0.28388   0.69250   0.00000   0.00000  Uiso   1.00
C23    C     0.35862   0.74049   0.00000   0.00000  Uiso   1.00
C24    C     0.38111   0.81021   0.00000   0.00000  Uiso   1.00
C25    C     0.47347   0.92804   0.00000   0.00000  Uiso   1.00
C26    C     0.42980   0.95612   0.00000   0.00000  Uiso   1.00
C27    C     0.54562   0.97335   0.00000   0.00000  Uiso   1.00
C28    C     0.59536   0.94666   0.00000   0.00000  Uiso   1.00
H25    H     0.37371   0.92057   0.00000   0.00000  Uiso   1.00
H26    H     0.34301   0.82783   0.00000   0.00000  Uiso   1.00
H27    H     0.48103   0.83841   0.00000   0.00000  Uiso   1.00
H28    H     0.64962   0.99039   0.00000   0.00000  Uiso   1.00
O5     O     0.28474   0.52707   0.00000   0.00000  Uiso   1.00
N5     N     0.14095   0.58807   0.00000   0.00000  Uiso   1.00
C29    C     0.30750   0.59138   0.00000   0.00000  Uiso   1.00
C30    C     0.25951   0.61813   0.00000   0.00000  Uiso   1.00
C31    C     0.18979   0.57090   0.00000   0.00000  Uiso   1.00
C32    C     0.07196   0.54543   0.00000   0.00000  Uiso   1.00
C33    C     0.04388   0.47368   0.00000   0.00000  Uiso   1.00
C34    C     0.02665   0.57227   0.00000   0.00000  Uiso   1.00
C35    C     0.05334   0.64870   0.00000   0.00000  Uiso   1.00
H29    H     0.07943   0.45314   0.00000   0.00000  Uiso   1.00
H30    H     0.17217   0.51518   0.00000   0.00000  Uiso   1.00
H31    H     0.16159   0.64262   0.00000   0.00000  Uiso   1.00
H32    H     0.00961   0.65923   0.00000   0.00000  Uiso   1.00
O6     O     0.47293   0.75767   0.00000   0.00000  Uiso   1.00
N6     N     0.41193   0.55288   0.00000   0.00000  Uiso   1.00
C36    C     0.40862   0.71612   0.00000   0.00000  Uiso   1.00
C37    C     0.38187   0.64138   0.00000   0.00000  Uiso   1.00
C38    C     0.42910   0.61889   0.00000   0.00000  Uiso   1.00
C39    C     0.45457   0.52653   0.00000   0.00000  Uiso   1.00
C40    C     0.52632   0.57020   0.00000   0.00000  Uiso   1.00
C41    C     0.42773   0.45438   0.00000   0.00000  Uiso   1.00
C42    C     0.35130   0.40464   0.00000   0.00000  Uiso   1.00
H33    H     0.54686   0.62629   0.00000   0.00000  Uiso   1.00
H34    H     0.48482   0.65699   0.00000   0.00000  Uiso   1.00
H35    H     0.35738   0.51897   0.00000   0.00000  Uiso   1.00
H36    H     0.34077   0.35038   0.00000   0.00000  Uiso   1.00
loop_
_geom_bond_atom_site_label_1
_geom_bond_atom_site_label_2
_geom_bond_distance
_geom_bond_site_symmetry_2
_ccdc_geom_bond_type
H1     C7      1.108   .     S
H2     C14     1.108   .     S
H3     C21     1.108   .     S
H4     C28     1.108   .     S
H5     C35     1.108   .     S
H6     C42     1.108   .     S
H7     C28     1.108   .     S
H8     C35     1.108   .     S
H9     C42     1.108   .     S
H10    C7      1.108   .     S
H11    C14     1.108   .     S
H12    C21     1.108   .     S
O1     C1      1.271   .     S
N1     H15     1.074   .     S
N1     C3      1.335   .     S
N1     C4      1.357   .     S
C1     C9      1.478   .     S
C1     C2      1.476   .     S
C2     C3      1.387   .     S
C2     C15     1.478   .     S
C3     H14     1.110   .     S
C4     C5      1.409   .     S
C4     C6      1.422   .     S
C5     H13     1.106   .     S
C6     C7      1.512   .     S
C7     H16     1.122   .     S
O2     C8      1.271   .     S
N2     C10     1.335   .     S
N2     C11     1.357   .     S
N2     H19     1.074   .     S
C8     C9      1.476   .     S
C8     C16     1.478   .     S
C9     C10     1.387   .     S
C10    H18     1.110   .     S
C11    C12     1.409   .     S
C11    C13     1.422   .     S
C12    H17     1.106   .     S
C13    C14     1.512   .     S
C14    H20     1.122   .     S
O3     C15     1.271   .     S
N3     C17     1.335   .     S
N3     C18     1.357   .     S
N3     H23     1.074   .     S
C15    C16     1.476   .     S
C16    C17     1.387   .     S
C17    H22     1.110   .     S
C18    C20     1.422   .     S
C18    C19     1.409   .     S
C19    H21     1.106   .     S
C19    C41     1.396   .     S
C20    C40     1.396   .     S
C20    C21     1.512   .     S
C21    H24     1.122   .     S
O4     C22     1.271   .     S
N4     H27     1.074   .     S
N4     C25     1.357   .     S
N4     C24     1.335   .     S
C22    C23     1.476   .     S
C22    C30     1.478   .     S
C23    C24     1.387   .     S
C23    C36     1.478   .     S
C24    H26     1.110   .     S
C25    C27     1.422   .     S
C25    C26     1.409   .     S
C26    H25     1.106   .     S
C27    C28     1.512   .     S
C28    H28     1.122   .     S
O5     C29     1.271   .     S
N5     C31     1.335   .     S
N5     C32     1.357   .     S
N5     H31     1.074   .     S
C29    C30     1.476   .     S
C29    C37     1.478   .     S
C30    C31     1.387   .     S
C31    H30     1.110   .     S
C32    C34     1.422   .     S
C32    C33     1.409   .     S
C33    H29     1.106   .     S
C34    C35     1.512   .     S
C35    H32     1.122   .     S
O6     C36     1.271   .     S
N6     C38     1.335   .     S
N6     H35     1.074   .     S
N6     C39     1.357   .     S
C36    C37     1.476   .     S
C37    C38     1.387   .     S
C38    H34     1.110   .     S
C39    C41     1.422   .     S
C39    C40     1.409   .     S
C40    H33     1.106   .     S
C41    C42     1.512   .     S
C42    H36     1.122   .     S
