data_TpPa-F4
_audit_creation_date              2016-12-13
_audit_creation_method            'Materials Studio'
_symmetry_space_group_name_H-M    'P1'
_symmetry_Int_Tables_number       1
_symmetry_cell_setting            triclinic
loop_
_symmetry_equiv_pos_as_xyz
  x,y,z
_cell_length_a                    22.1200
_cell_length_b                    22.1200
_cell_length_c                    3.2800
_cell_angle_alpha                 90.0000
_cell_angle_beta                  90.0000
_cell_angle_gamma                 120.0000
loop_
_atom_site_label
_atom_site_type_symbol
_atom_site_fract_x
_atom_site_fract_y
_atom_site_fract_z
_atom_site_U_iso_or_equiv
_atom_site_adp_type
_atom_site_occupancy
F1     F     0.42831   0.35660   0.00000   0.00000  Uiso   1.00
F2     F     0.35777   0.42603   0.00000   0.00000  Uiso   1.00
O1     O     0.70395   0.47093   0.00000   0.00000  Uiso   1.00
N1     N     0.57967   0.43562   0.00000   0.00000  Uiso   1.00
C1     C     0.68597   0.40653   0.00000   0.00000  Uiso   1.00
C2     C     0.61379   0.35215   0.00000   0.00000  Uiso   1.00
C3     C     0.56120   0.36839   0.00000   0.00000  Uiso   1.00
C4     C     0.53790   0.46432   0.00000   0.00000  Uiso   1.00
C5     C     0.42812   0.46239   0.00000   0.00000  Uiso   1.00
C6     C     0.46465   0.42728   0.00000   0.00000  Uiso   1.00
H1     H     0.62234   0.47599   0.00000   0.00000  Uiso   1.00
H2     H     0.50783   0.32725   0.00000   0.00000  Uiso   1.00
F3     F     0.64340   0.07171   0.00000   0.00000  Uiso   1.00
F4     F     0.57397   0.93174   0.00000   0.00000  Uiso   1.00
O2     O     0.52907   0.23302   0.00000   0.00000  Uiso   1.00
N2     N     0.56438   0.14405   0.00000   0.00000  Uiso   1.00
C7     C     0.59347   0.27944   0.00000   0.00000  Uiso   1.00
C8     C     0.64785   0.26164   0.00000   0.00000  Uiso   1.00
C9     C     0.63161   0.19281   0.00000   0.00000  Uiso   1.00
C10    C     0.53568   0.07358   0.00000   0.00000  Uiso   1.00
C11    C     0.53761   0.96573   0.00000   0.00000  Uiso   1.00
C12    C     0.57272   0.03737   0.00000   0.00000  Uiso   1.00
H3     H     0.52401   0.14635   0.00000   0.00000  Uiso   1.00
H4     H     0.67275   0.18058   0.00000   0.00000  Uiso   1.00
F5     F     0.92829   0.57169   0.00000   0.00000  Uiso   1.00
F6     F     0.06826   0.64223   0.00000   0.00000  Uiso   1.00
O3     O     0.76698   0.29605   0.00000   0.00000  Uiso   1.00
N3     N     0.85595   0.42033   0.00000   0.00000  Uiso   1.00
C13    C     0.72056   0.31403   0.00000   0.00000  Uiso   1.00
C14    C     0.73836   0.38621   0.00000   0.00000  Uiso   1.00
C15    C     0.80719   0.43880   0.00000   0.00000  Uiso   1.00
C16    C     0.92642   0.46210   0.00000   0.00000  Uiso   1.00
C17    C     0.03427   0.57188   0.00000   0.00000  Uiso   1.00
C18    C     0.96263   0.53535   0.00000   0.00000  Uiso   1.00
H5     H     0.85365   0.37766   0.00000   0.00000  Uiso   1.00
H6     H     0.81942   0.49217   0.00000   0.00000  Uiso   1.00
F7     F     0.57169   0.64340   0.00000   0.00000  Uiso   1.00
F8     F     0.64223   0.57397   0.00000   0.00000  Uiso   1.00
O4     O     0.29605   0.52907   0.00000   0.00000  Uiso   1.00
N4     N     0.42033   0.56438   0.00000   0.00000  Uiso   1.00
C19    C     0.31403   0.59347   0.00000   0.00000  Uiso   1.00
C20    C     0.38621   0.64785   0.00000   0.00000  Uiso   1.00
C21    C     0.43880   0.63161   0.00000   0.00000  Uiso   1.00
C22    C     0.46210   0.53568   0.00000   0.00000  Uiso   1.00
C23    C     0.57188   0.53761   0.00000   0.00000  Uiso   1.00
C24    C     0.53535   0.57272   0.00000   0.00000  Uiso   1.00
H7     H     0.37766   0.52401   0.00000   0.00000  Uiso   1.00
H8     H     0.49217   0.67275   0.00000   0.00000  Uiso   1.00
F9     F     0.35660   0.92829   0.00000   0.00000  Uiso   1.00
F10    F     0.42603   0.06826   0.00000   0.00000  Uiso   1.00
O5     O     0.47093   0.76698   0.00000   0.00000  Uiso   1.00
N5     N     0.43562   0.85595   0.00000   0.00000  Uiso   1.00
C25    C     0.40653   0.72056   0.00000   0.00000  Uiso   1.00
C26    C     0.35215   0.73836   0.00000   0.00000  Uiso   1.00
C27    C     0.36839   0.80719   0.00000   0.00000  Uiso   1.00
C28    C     0.46432   0.92642   0.00000   0.00000  Uiso   1.00
C29    C     0.46239   0.03427   0.00000   0.00000  Uiso   1.00
C30    C     0.42728   0.96263   0.00000   0.00000  Uiso   1.00
H9     H     0.47599   0.85365   0.00000   0.00000  Uiso   1.00
H10    H     0.32725   0.81942   0.00000   0.00000  Uiso   1.00
F11    F     0.07171   0.42831   0.00000   0.00000  Uiso   1.00
F12    F     0.93174   0.35777   0.00000   0.00000  Uiso   1.00
O6     O     0.23302   0.70395   0.00000   0.00000  Uiso   1.00
N6     N     0.14405   0.57967   0.00000   0.00000  Uiso   1.00
C31    C     0.27944   0.68597   0.00000   0.00000  Uiso   1.00
C32    C     0.26164   0.61379   0.00000   0.00000  Uiso   1.00
C33    C     0.19281   0.56120   0.00000   0.00000  Uiso   1.00
C34    C     0.07358   0.53790   0.00000   0.00000  Uiso   1.00
C35    C     0.96573   0.42812   0.00000   0.00000  Uiso   1.00
C36    C     0.03737   0.46465   0.00000   0.00000  Uiso   1.00
H11    H     0.14635   0.62234   0.00000   0.00000  Uiso   1.00
H12    H     0.18058   0.50783   0.00000   0.00000  Uiso   1.00
loop_
_geom_bond_atom_site_label_1
_geom_bond_atom_site_label_2
_geom_bond_distance
_geom_bond_site_symmetry_2
_ccdc_geom_bond_type
F1     C6      1.354   .     S
F2     C5      1.348   .     S
O1     C1      1.273   .     S
N1     H1      0.919   .     S
N1     C4      1.358   .     S
N1     C3      1.331   .     S
C1     C14     1.437   .     S
C1     C2      1.441   .     S
C2     C7      1.437   .     S
C2     C3      1.378   .     S
C3     H2      1.071   .     S
C4     C23     1.405   .     S
C4     C6      1.403   .     S
C5     C22     1.405   .     S
C5     C6      1.372   .     S
F3     C12     1.354   .     S
F4     C11     1.348   .     S
O2     C7      1.273   .     S
N2     H3      0.919   .     S
N2     C9      1.331   .     S
N2     C10     1.358   .     S
C7     C8      1.441   .     S
C8     C9      1.378   .     S
C8     C13     1.437   .     S
C9     H4      1.071   .     S
C10    C12     1.403   .     S
C10    C29     1.405   .     S
C11    C28     1.405   .     S
F5     C18     1.354   .     S
F6     C17     1.348   .     S
O3     C13     1.273   .     S
N3     C16     1.358   .     S
N3     H5      0.919   .     S
N3     C15     1.331   .     S
C13    C14     1.441   .     S
C14    C15     1.378   .     S
C15    H6      1.071   .     S
C16    C35     1.405   .     S
C16    C18     1.403   .     S
C17    C34     1.405   .     S
F7     C24     1.354   .     S
F8     C23     1.348   .     S
O4     C19     1.273   .     S
N4     C21     1.331   .     S
N4     H7      0.919   .     S
N4     C22     1.358   .     S
C19    C32     1.437   .     S
C19    C20     1.441   .     S
C20    C25     1.437   .     S
C20    C21     1.378   .     S
C21    H8      1.071   .     S
C22    C24     1.403   .     S
C23    C24     1.372   .     S
F9     C30     1.354   .     S
F10    C29     1.348   .     S
O5     C25     1.273   .     S
N5     H9      0.919   .     S
N5     C28     1.358   .     S
N5     C27     1.331   .     S
C25    C26     1.441   .     S
C26    C31     1.437   .     S
C26    C27     1.378   .     S
C27    H10     1.071   .     S
C28    C30     1.403   .     S
F11    C36     1.354   .     S
F12    C35     1.348   .     S
O6     C31     1.273   .     S
N6     C33     1.331   .     S
N6     H11     0.919   .     S
N6     C34     1.358   .     S
C31    C32     1.441   .     S
C32    C33     1.378   .     S
C33    H12     1.071   .     S
C34    C36     1.403   .     S
