data_TpPA-NO2
_audit_creation_date              2016-12-13
_audit_creation_method            'Materials Studio'
_symmetry_space_group_name_H-M    'P1'
_symmetry_Int_Tables_number       1
_symmetry_cell_setting            triclinic
loop_
_symmetry_equiv_pos_as_xyz
  x,y,z
_cell_length_a                    21.8000
_cell_length_b                    21.8000
_cell_length_c                    3.2400
_cell_angle_alpha                 90.0000
_cell_angle_beta                  90.0000
_cell_angle_gamma                 120.0000
loop_
_atom_site_label
_atom_site_type_symbol
_atom_site_fract_x
_atom_site_fract_y
_atom_site_fract_z
_atom_site_U_iso_or_equiv
_atom_site_adp_type
_atom_site_occupancy
C1     C     0.54027   0.87216   0.48167   0.00000  Uiso   1.00
C10    C     0.21035   0.69676   0.48167   0.00000  Uiso   1.00
C11    C     0.18266   0.74128   0.48167   0.00000  Uiso   1.00
C12    C     0.22589   0.81325   0.48167   0.00000  Uiso   1.00
C13    C     0.29619   0.84001   0.48167   0.00000  Uiso   1.00
C14    C     0.06280   0.65358   0.48167   0.00000  Uiso   1.00
C15    C    -0.00514   0.64067   0.48167   0.00000  Uiso   1.00
C16    C     0.96910   1.67864   0.48167   0.00000  Uiso   1.00
C17    C     0.89799   1.66260   0.48167   0.00000  Uiso   1.00
C18    C     0.84191   1.59228   0.48167   0.00000  Uiso   1.00
C19    C     0.85912   1.53755   0.48167   0.00000  Uiso   1.00
C2     C     0.51100   0.91811   0.48167   0.00000  Uiso   1.00
C20    C     0.92993   1.55110   0.48167   0.00000  Uiso   1.00
C21    C     0.80523   1.47008   0.48167   0.00000  Uiso   1.00
C22    C     0.77456   1.34967   0.48167   0.00000  Uiso   1.00
C23    C     0.70336   1.32313   0.48167   0.00000  Uiso   1.00
C24    C     0.88404   1.71737   0.48167   0.00000  Uiso   1.00
C25    C     0.79513   1.75025   0.48167   0.00000  Uiso   1.00
C26    C     0.83894   1.82132   0.48167   0.00000  Uiso   1.00
C27    C     0.67102   1.09096   0.48167   0.00000  Uiso   1.00
C28    C     0.68833   1.20642   0.48167   0.00000  Uiso   1.00
C29    C     0.76101   1.23523   0.48167   0.00000  Uiso   1.00
C3     C     0.55313   0.99281   0.48167   0.00000  Uiso   1.00
C30    C     0.64154   0.85903   0.48167   0.00000  Uiso   1.00
C31    C     0.73847   0.83918   0.48167   0.00000  Uiso   1.00
C32    C     0.69545   0.76661   0.48167   0.00000  Uiso   1.00
C33    C     0.81116   0.86569   0.48167   0.00000  Uiso   1.00
C34    C     0.66033   1.25206   0.48167   0.00000  Uiso   1.00
C35    C     0.80344   1.30542   0.48167   0.00000  Uiso   1.00
C36    C     0.72303   0.72298   0.48167   0.00000  Uiso   1.00
C4     C     0.62740   1.02099   0.48167   0.00000  Uiso   1.00
C5     C     0.66014   0.97777   0.48167   0.00000  Uiso   1.00
C6     C     0.61514   0.90373   0.48167   0.00000  Uiso   1.00
C7     C     0.44079   0.89255   0.48167   0.00000  Uiso   1.00
C8     C     0.32626   0.79644   0.48167   0.00000  Uiso   1.00
C9     C     0.28166   0.72390   0.48167   0.00000  Uiso   1.00
H1     H     0.32942   0.89727   0.48167   0.00000  Uiso   1.00
H10    H     0.72759   1.10807   0.48167   0.00000  Uiso   1.00
H11    H     0.89640   1.84542   0.48167   0.00000  Uiso   1.00
H12    H     0.92795   1.77162   0.48167   0.00000  Uiso   1.00
H13    H     0.59081   1.11189   0.48167   0.00000  Uiso   1.00
H14    H     0.74114   0.93763   0.48167   0.00000  Uiso   1.00
H15    H     0.42190   0.79272   0.48167   0.00000  Uiso   1.00
H16    H     0.08921   0.75387   0.48167   0.00000  Uiso   1.00
H17    H     0.87880   1.44198   0.48167   0.00000  Uiso   1.00
H18    H     0.78406   1.64507   0.48167   0.00000  Uiso   1.00
H19    H     0.20185   0.84742   0.48167   0.00000  Uiso   1.00
H2     H     0.42269   0.93180   0.48167   0.00000  Uiso   1.00
H20    H     0.68932   1.66558   0.48167   0.00000  Uiso   1.00
H21    H     0.86090   1.32852   0.48167   0.00000  Uiso   1.00
H3     H     0.67814   1.35621   0.48167   0.00000  Uiso   1.00
H4     H     0.75063   1.46022   0.48167   0.00000  Uiso   1.00
H5     H     0.63829   0.74370   0.48167   0.00000  Uiso   1.00
H6     H     0.60287   0.80277   0.48167   0.00000  Uiso   1.00
H7     H     0.17811   0.63937   0.48167   0.00000  Uiso   1.00
H8     H     0.07358   0.60907   0.48167   0.00000  Uiso   1.00
H9     H     0.78505   1.20127   0.48167   0.00000  Uiso   1.00
N1     N     0.39688   0.82479   0.48167   0.00000  Uiso   1.00
N2     N     0.70949   0.88163   0.48167   0.00000  Uiso   1.00
N3     N     0.64708   1.13591   0.48167   0.00000  Uiso   1.00
N4     N     0.81887   1.70331   0.48167   0.00000  Uiso   1.00
N5     N     0.82055   1.41939   0.48167   0.00000  Uiso   1.00
N6     N     0.11274   0.71832   0.48167   0.00000  Uiso   1.00
N7     N     0.30638   0.67343   0.48167   0.00000  Uiso   1.00
N8     N     0.86090   0.93954   0.48167   0.00000  Uiso   1.00
N9     N     0.58607   1.22846   0.48167   0.00000  Uiso   1.00
O1     O     0.02829   0.76093   0.48167   0.00000  Uiso   1.00
O10    O     0.83835   0.98147   0.48167   0.00000  Uiso   1.00
O11    O     0.56757   1.27332   0.48167   0.00000  Uiso   1.00
O12    O     0.54522   1.16495   0.48167   0.00000  Uiso   1.00
O2     O     0.94546   1.50211   0.48167   0.00000  Uiso   1.00
O3     O     0.77822   1.57789   0.48167   0.00000  Uiso   1.00
O4     O     0.52554   1.03133   0.48167   0.00000  Uiso   1.00
O5     O     0.72531   1.00432   0.48167   0.00000  Uiso   1.00
O6     O     0.50269   0.80708   0.48167   0.00000  Uiso   1.00
O7     O     0.37007   0.69531   0.48167   0.00000  Uiso   1.00
O8     O     0.26248   0.61116   0.48167   0.00000  Uiso   1.00
O9     O     0.92330   0.95675   0.48167   0.00000  Uiso   1.00
loop_
_geom_bond_atom_site_label_1
_geom_bond_atom_site_label_2
_geom_bond_distance
_geom_bond_site_symmetry_2
_ccdc_geom_bond_type
C1     C2      1.432   .     S
C1     C6      1.419   .     S
C1     O6      1.234   .     S
C10    C11     1.376   .     S
C10    C9      1.359   .     S
C10    H7      1.086   .     S
C11    N6      1.346   .     S
C11    C12     1.368   .     S
C12    C13     1.340   .     S
C12    H19     1.104   .     S
C13    C8      1.398   .     S
C13    H1      1.086   .     S
C14    C15     1.362   .     S
C14    H8      1.107   .     S
C14    N6      1.281   .     S
C16    C17     1.408   .     S
C17    C24     1.372   .     S
C17    C18     1.404   .     S
C18    O3      1.261   .     S
C18    C19     1.418   .     S
C19    C20     1.419   .     S
C19    C21     1.347   .     S
C2     C7      1.342   .     S
C2     C3      1.414   .     S
C20    O2      1.272   .     S
C21    H4      1.099   .     S
C21    N5      1.304   .     S
C22    C23     1.359   .     S
C22    N5      1.338   .     S
C22    C35     1.391   .     S
C23    H3      1.104   .     S
C23    C34     1.352   .     S
C24    H12     1.088   .     S
C24    N4      1.295   .     S
C25    N4      1.358   .     S
C25    C26     1.354   .     S
C26    H11     1.089   .     S
C27    H10     1.095   .     S
C27    N3      1.321   .     S
C27    C4      1.334   .     S
C28    N3      1.338   .     S
C28    C29     1.382   .     S
C28    C34     1.404   .     S
C29    C35     1.335   .     S
C29    H9      1.100   .     S
C3     O4      1.254   .     S
C3     C4      1.416   .     S
C30    C6      1.357   .     S
C30    N2      1.307   .     S
C30    H6      1.087   .     S
C31    C32     1.378   .     S
C31    N2      1.357   .     S
C31    C33     1.389   .     S
C32    H5      1.086   .     S
C32    C36     1.356   .     S
C33    N8      1.422   .     S
C34    N9      1.433   .     S
C35    H21     1.092   .     S
C4     C5      1.439   .     S
C5     O5      1.237   .     S
C5     C6      1.409   .     S
C7     H2      1.107   .     S
C7     N1      1.298   .     S
C8     N1      1.342   .     S
C8     C9      1.381   .     S
C9     N7      1.447   .     S
H13    N3      1.066   .     S
H14    N2      1.060   .     S
H15    N1      1.081   .     S
H16    N6      1.123   .     S
H17    N5      1.109   .     S
H18    N4      1.107   .     S
N7     O7      1.222   .     S
N7     O8      1.208   .     S
N8     O10     1.236   .     S
N8     O9      1.217   .     S
N9     O11     1.230   .     S
N9     O12     1.215   .     S
