data_TpPa-1-2F
_audit_creation_date              2016-12-13
_audit_creation_method            'Materials Studio'
_symmetry_space_group_name_H-M    'P1'
_symmetry_Int_Tables_number       1
_symmetry_cell_setting            triclinic
loop_
_symmetry_equiv_pos_as_xyz
  x,y,z
_cell_length_a                    22.5560
_cell_length_b                    22.5560
_cell_length_c                    3.4000
_cell_angle_alpha                 90.0000
_cell_angle_beta                  90.0000
_cell_angle_gamma                 120.0000
loop_
_atom_site_label
_atom_site_type_symbol
_atom_site_fract_x
_atom_site_fract_y
_atom_site_fract_z
_atom_site_U_iso_or_equiv
_atom_site_adp_type
_atom_site_occupancy
O1     O     0.28355   0.52709   0.50000   0.00000  Uiso   1.00
N1     N     0.41129   0.55212   0.50000   0.00000  Uiso   1.00
C1     C     0.30695   0.59146   0.50000   0.00000  Uiso   1.00
C2     C     0.38113   0.64063   0.50000   0.00000  Uiso   1.00
C3     C     0.42797   0.61784   0.50000   0.00000  Uiso   1.00
C4     C     0.45481   0.52704   0.50000   0.00000  Uiso   1.00
C5     C     0.42936   0.45590   0.50000   0.00000  Uiso   1.00
C6     C     0.52674   0.57065   0.50000   0.00000  Uiso   1.00
H1     H     0.37353   0.42043   0.50000   0.00000  Uiso   1.00
H2     H     0.48370   0.65597   0.50000   0.00000  Uiso   1.00
H3     H     0.35757   0.51744   0.50000   0.00000  Uiso   1.00
O2     O     0.47291   0.75646   0.50000   0.00000  Uiso   1.00
N2     N     0.44788   0.85917   0.50000   0.00000  Uiso   1.00
C7     C     0.40854   0.71549   0.50000   0.00000  Uiso   1.00
C8     C     0.35937   0.74050   0.50000   0.00000  Uiso   1.00
C9     C     0.38216   0.81013   0.50000   0.00000  Uiso   1.00
C10    C     0.47296   0.92777   0.50000   0.00000  Uiso   1.00
C11    C     0.54410   0.97346   0.50000   0.00000  Uiso   1.00
C12    C     0.42935   0.95609   0.50000   0.00000  Uiso   1.00
H4     H     0.57957   0.95310   0.50000   0.00000  Uiso   1.00
H5     H     0.34403   0.82773   0.50000   0.00000  Uiso   1.00
H6     H     0.48256   0.84013   0.50000   0.00000  Uiso   1.00
O3     O     0.24354   0.71645   0.50000   0.00000  Uiso   1.00
N3     N     0.14083   0.58871   0.50000   0.00000  Uiso   1.00
C13    C     0.28451   0.69305   0.50000   0.00000  Uiso   1.00
C14    C     0.25950   0.61887   0.50000   0.00000  Uiso   1.00
C15    C     0.18987   0.57203   0.50000   0.00000  Uiso   1.00
C16    C     0.07223   0.54519   0.50000   0.00000  Uiso   1.00
C17    C     0.02654   0.57064   0.50000   0.00000  Uiso   1.00
C18    C     0.04391   0.47326   0.50000   0.00000  Uiso   1.00
H7     H     0.04690   0.62647   0.50000   0.00000  Uiso   1.00
H8     H     0.17227   0.51630   0.50000   0.00000  Uiso   1.00
H9     H     0.15987   0.64243   0.50000   0.00000  Uiso   1.00
O4     O     0.71645   0.47291   0.50000   0.00000  Uiso   1.00
N4     N     0.58871   0.44788   0.50000   0.00000  Uiso   1.00
C19    C     0.69305   0.40854   0.50000   0.00000  Uiso   1.00
C20    C     0.61887   0.35937   0.50000   0.00000  Uiso   1.00
C21    C     0.57203   0.38216   0.50000   0.00000  Uiso   1.00
C22    C     0.54519   0.47296   0.50000   0.00000  Uiso   1.00
C23    C     0.57064   0.54410   0.50000   0.00000  Uiso   1.00
C24    C     0.47326   0.42935   0.50000   0.00000  Uiso   1.00
H10    H     0.62647   0.57957   0.50000   0.00000  Uiso   1.00
H11    H     0.51630   0.34403   0.50000   0.00000  Uiso   1.00
H12    H     0.64243   0.48256   0.50000   0.00000  Uiso   1.00
O5     O     0.52709   0.24354   0.50000   0.00000  Uiso   1.00
N5     N     0.55212   0.14083   0.50000   0.00000  Uiso   1.00
C25    C     0.59146   0.28451   0.50000   0.00000  Uiso   1.00
C26    C     0.64063   0.25950   0.50000   0.00000  Uiso   1.00
C27    C     0.61784   0.18987   0.50000   0.00000  Uiso   1.00
C28    C     0.52704   0.07223   0.50000   0.00000  Uiso   1.00
C29    C     0.45590   0.02654   0.50000   0.00000  Uiso   1.00
C30    C     0.57065   0.04391   0.50000   0.00000  Uiso   1.00
H13    H     0.42043   0.04690   0.50000   0.00000  Uiso   1.00
H14    H     0.65597   0.17227   0.50000   0.00000  Uiso   1.00
H15    H     0.51744   0.15987   0.50000   0.00000  Uiso   1.00
O6     O     0.75646   0.28355   0.50000   0.00000  Uiso   1.00
N6     N     0.85917   0.41129   0.50000   0.00000  Uiso   1.00
C31    C     0.71549   0.30695   0.50000   0.00000  Uiso   1.00
C32    C     0.74050   0.38113   0.50000   0.00000  Uiso   1.00
C33    C     0.81013   0.42797   0.50000   0.00000  Uiso   1.00
C34    C     0.92777   0.45481   0.50000   0.00000  Uiso   1.00
C35    C     0.97346   0.42936   0.50000   0.00000  Uiso   1.00
C36    C     0.95609   0.52674   0.50000   0.00000  Uiso   1.00
H16    H     0.95310   0.37353   0.50000   0.00000  Uiso   1.00
H17    H     0.82773   0.48370   0.50000   0.00000  Uiso   1.00
H18    H     0.84013   0.35757   0.50000   0.00000  Uiso   1.00
F1     F     0.56362   0.63977   0.50000   0.00000  Uiso   1.00
F2     F     0.43638   0.36023   0.50001   0.00000  Uiso   1.00
F3     F     0.36023   0.92386   0.50000   0.00000  Uiso   1.00
F4     F     0.07614   0.43638   0.50000   0.00000  Uiso   1.00
F5     F     0.92386   0.56362   0.50000   0.00000  Uiso   1.00
F6     F     0.63976   0.07614   0.50000   0.00000  Uiso   1.00
loop_
_geom_bond_atom_site_label_1
_geom_bond_atom_site_label_2
_geom_bond_distance
_geom_bond_site_symmetry_2
_ccdc_geom_bond_type
O1     C1      1.273   .     S
N1     C3      1.335   .     S
N1     H3      1.064   .     S
N1     C4      1.356   .     S
C1     C14     1.480   .     S
C1     C2      1.474   .     S
C2     C7      1.480   .     S
C2     C3      1.387   .     S
C3     H2      1.113   .     S
C4     C5      1.408   .     S
C4     C6      1.416   .     S
C5     H1      1.104   .     S
C5     C24     1.390   .     S
C6     C23     1.390   .     S
C6     F1      1.351   .     S
O2     C7      1.273   .     S
N2     H6      1.064   .     S
N2     C10     1.356   .     S
N2     C9      1.335   .     S
C7     C8      1.474   .     S
C8     C9      1.387   .     S
C8     C13     1.480   .     S
C9     H5      1.113   .     S
C10    C11     1.408   .     S
C10    C12     1.416   .     S
C11    H4      1.104   .     S
C12    F3      1.351   .     S
O3     C13     1.273   .     S
N3     C15     1.335   .     S
N3     C16     1.356   .     S
N3     H9      1.064   .     S
C13    C14     1.474   .     S
C14    C15     1.387   .     S
C15    H8      1.113   .     S
C16    C17     1.408   .     S
C16    C18     1.416   .     S
C17    H7      1.104   .     S
C18    F4      1.351   .     S
O4     C19     1.273   .     S
N4     C21     1.335   .     S
N4     C22     1.356   .     S
N4     H12     1.064   .     S
C19    C32     1.480   .     S
C19    C20     1.474   .     S
C20    C25     1.480   .     S
C20    C21     1.387   .     S
C21    H11     1.113   .     S
C22    C23     1.408   .     S
C22    C24     1.416   .     S
C23    H10     1.104   .     S
C24    F2      1.351   .     S
O5     C25     1.273   .     S
N5     H15     1.064   .     S
N5     C27     1.335   .     S
N5     C28     1.356   .     S
C25    C26     1.474   .     S
C26    C27     1.387   .     S
C26    C31     1.480   .     S
C27    H14     1.113   .     S
C28    C30     1.416   .     S
C28    C29     1.408   .     S
C29    H13     1.104   .     S
C30    F6      1.351   .     S
O6     C31     1.273   .     S
N6     C33     1.335   .     S
N6     C34     1.356   .     S
N6     H18     1.064   .     S
C31    C32     1.474   .     S
C32    C33     1.387   .     S
C33    H17     1.113   .     S
C34    C36     1.416   .     S
C34    C35     1.408   .     S
C35    H16     1.104   .     S
C36    F5      1.351   .     S
