data_TPT-COF-2
_audit_creation_date              2016-12-13
_audit_creation_method            'Materials Studio'
_symmetry_space_group_name_H-M    'P1'
_symmetry_Int_Tables_number       1
_symmetry_cell_setting            triclinic
loop_
_symmetry_equiv_pos_as_xyz
  x,y,z
_cell_length_a                    40.7177
_cell_length_b                    40.7145
_cell_length_c                    3.4000
_cell_angle_alpha                 90.0000
_cell_angle_beta                  90.0000
_cell_angle_gamma                 119.7882
loop_
_atom_site_label
_atom_site_type_symbol
_atom_site_fract_x
_atom_site_fract_y
_atom_site_fract_z
_atom_site_U_iso_or_equiv
_atom_site_adp_type
_atom_site_occupancy
C1     C     0.50141   0.46694   1.47059   0.00000  Uiso   1.00
N1     N     0.53391   0.50109   1.47059   0.00000  Uiso   1.00
C2     C     0.53294   0.53403   1.47059   0.00000  Uiso   1.00
N2     N     0.49874   0.53244   1.47059   0.00000  Uiso   1.00
C3     C     0.46588   0.49871   1.47059   0.00000  Uiso   1.00
N3     N     0.46761   0.46617   1.47059   0.00000  Uiso   1.00
O1     O     0.50459   0.43395   1.47059   0.00000  Uiso   1.00
O2     O     0.56576   0.57011   1.47059   0.00000  Uiso   1.00
O3     O     0.42977   0.49560   1.47059   0.00000  Uiso   1.00
C4     C     0.47410   0.39609   1.47059   0.00000  Uiso   1.00
C5     C     0.60372   0.57766   1.47059   0.00000  Uiso   1.00
C6     C     0.42224   0.52609   1.47059   0.00000  Uiso   1.00
C7     C     0.44964   0.56544   1.47059   0.00000  Uiso   1.00
C8     C     0.43809   0.59285   1.47059   0.00000  Uiso   1.00
C9     C     0.39942   0.58215   1.47059   0.00000  Uiso   1.00
C10    C     0.37205   0.54309   1.47059   0.00000  Uiso   1.00
C11    C     0.38356   0.51569   1.47059   0.00000  Uiso   1.00
C12    C     0.61585   0.55026   1.47059   0.00000  Uiso   1.00
C13    C     0.65476   0.56185   1.47059   0.00000  Uiso   1.00
C14    C     0.68247   0.60054   1.47059   0.00000  Uiso   1.00
C15    C     0.67058   0.62789   1.47059   0.00000  Uiso   1.00
C16    C     0.63173   0.61635   1.47059   0.00000  Uiso   1.00
C17    C     0.43474   0.38436   1.47059   0.00000  Uiso   1.00
C18    C     0.40734   0.34556   1.47059   0.00000  Uiso   1.00
C19    C     0.41804   0.31753   1.47059   0.00000  Uiso   1.00
C20    C     0.45710   0.32898   1.47059   0.00000  Uiso   1.00
C21    C     0.48451   0.36774   1.47059   0.00000  Uiso   1.00
H1     H     0.47969   0.57640   1.47059   0.00000  Uiso   1.00
H2     H     0.45938   0.62265   1.47059   0.00000  Uiso   1.00
H3     H     0.34202   0.53332   1.47059   0.00000  Uiso   1.00
H4     H     0.36214   0.48594   1.47059   0.00000  Uiso   1.00
H5     H     0.59692   0.52022   1.47059   0.00000  Uiso   1.00
H6     H     0.66341   0.54057   1.47059   0.00000  Uiso   1.00
H7     H     0.69062   0.65792   1.47059   0.00000  Uiso   1.00
H8     H     0.62325   0.63775   1.47059   0.00000  Uiso   1.00
H9     H     0.42374   0.40348   1.47059   0.00000  Uiso   1.00
H10    H     0.37755   0.33725   1.47059   0.00000  Uiso   1.00
H11    H     0.46687   0.30866   1.47059   0.00000  Uiso   1.00
H12    H     0.51425   0.37588   1.47059   0.00000  Uiso   1.00
N4     N     0.38960   0.61172   1.47059   0.00000  Uiso   1.00
C22    C     0.35560   0.60722   1.47059   0.00000  Uiso   1.00
H13    H     0.33023   0.57975   1.47059   0.00000  Uiso   1.00
N5     N     0.72181   0.61042   1.47059   0.00000  Uiso   1.00
C23    C     0.75107   0.64444   1.47059   0.00000  Uiso   1.00
H14    H     0.74879   0.66980   1.47059   0.00000  Uiso   1.00
N6     N     0.38847   0.27833   1.47059   0.00000  Uiso   1.00
C24    C     0.39293   0.24878   1.47059   0.00000  Uiso   1.00
H15    H     0.42040   0.25070   1.47059   0.00000  Uiso   1.00
C25    C     0.16488   0.86700   1.47059   0.00000  Uiso   1.00
N7     N     0.13239   0.83286   1.47059   0.00000  Uiso   1.00
C26    C     0.13335   0.79991   1.47059   0.00000  Uiso   1.00
N8     N     0.16755   0.80150   1.47059   0.00000  Uiso   1.00
C27    C     0.20041   0.83524   1.47060   0.00000  Uiso   1.00
N9     N     0.19868   0.86778   1.47060   0.00000  Uiso   1.00
O4     O     0.16171   0.90000   1.47059   0.00000  Uiso   1.00
O5     O     0.10054   0.76383   1.47059   0.00000  Uiso   1.00
O6     O     0.23652   0.83835   1.47060   0.00000  Uiso   1.00
C28    C     0.19219   0.93786   1.47060   0.00000  Uiso   1.00
C29    C     0.06257   0.75628   1.47059   0.00000  Uiso   1.00
C30    C     0.24406   0.80785   1.47060   0.00000  Uiso   1.00
C31    C     0.21665   0.76850   1.47060   0.00000  Uiso   1.00
C32    C     0.22821   0.74109   1.47060   0.00000  Uiso   1.00
C33    C     0.26687   0.75179   1.47060   0.00000  Uiso   1.00
C34    C     0.29425   0.79085   1.47060   0.00000  Uiso   1.00
C35    C     0.28274   0.81826   1.47060   0.00000  Uiso   1.00
C36    C     0.05045   0.78368   1.47059   0.00000  Uiso   1.00
C37    C     0.01154   0.77209   1.47059   0.00000  Uiso   1.00
C38    C     0.98383   0.73340   1.47059   0.00000  Uiso   1.00
C39    C     0.99572   0.70605   1.47059   0.00000  Uiso   1.00
C40    C     0.03456   0.71759   1.47059   0.00000  Uiso   1.00
C41    C     0.23155   0.94958   1.47060   0.00000  Uiso   1.00
C42    C     0.25896   0.98838   1.47060   0.00000  Uiso   1.00
C43    C     0.24825   0.01641   1.47060   0.00000  Uiso   1.00
C44    C     0.20919   0.00496   1.47060   0.00000  Uiso   1.00
C45    C     0.18178   0.96621   1.47060   0.00000  Uiso   1.00
H16    H     0.18661   0.75754   1.47059   0.00000  Uiso   1.00
H17    H     0.20691   0.71130   1.47059   0.00000  Uiso   1.00
H18    H     0.32427   0.80062   1.47060   0.00000  Uiso   1.00
H19    H     0.30415   0.84801   1.47060   0.00000  Uiso   1.00
H20    H     0.06937   0.81372   1.47059   0.00000  Uiso   1.00
H21    H     0.00289   0.79337   1.47059   0.00000  Uiso   1.00
H22    H     0.97567   0.67602   1.47059   0.00000  Uiso   1.00
H23    H     0.04305   0.69619   1.47059   0.00000  Uiso   1.00
H24    H     0.24256   0.93047   1.47060   0.00000  Uiso   1.00
H25    H     0.28875   0.99669   1.47060   0.00000  Uiso   1.00
H26    H     0.19942   0.02528   1.47060   0.00000  Uiso   1.00
H27    H     0.15204   0.95806   1.47060   0.00000  Uiso   1.00
N10    N     0.27670   0.72223   1.47060   0.00000  Uiso   1.00
C46    C     0.31070   0.72672   1.47060   0.00000  Uiso   1.00
H28    H     0.33606   0.75420   1.47060   0.00000  Uiso   1.00
N11    N     0.94449   0.72352   1.47059   0.00000  Uiso   1.00
C47    C     0.91522   0.68950   1.47059   0.00000  Uiso   1.00
H29    H     0.91751   0.66414   1.47059   0.00000  Uiso   1.00
N12    N     0.27783   0.05561   1.47060   0.00000  Uiso   1.00
C48    C     0.27336   0.08517   1.47060   0.00000  Uiso   1.00
H30    H     0.24589   0.08324   1.47060   0.00000  Uiso   1.00
C49    C     0.87190   0.67761   1.47059   0.00000  Uiso   1.00
C50    C     0.84384   0.63919   1.47059   0.00000  Uiso   1.00
C51    C     0.82246   0.69475   1.47059   0.00000  Uiso   1.00
H31    H     0.85168   0.61733   1.47059   0.00000  Uiso   1.00
C52    C     0.86085   0.70529   1.47059   0.00000  Uiso   1.00
C53    C     0.80545   0.62865   1.47059   0.00000  Uiso   1.00
H32    H     0.88199   0.73511   1.47059   0.00000  Uiso   1.00
C54    C     0.79439   0.65633   1.47059   0.00000  Uiso   1.00
H33    H     0.78430   0.59883   1.47059   0.00000  Uiso   1.00
H34    H     0.81461   0.71661   1.47059   0.00000  Uiso   1.00
C55    C     0.32254   0.69519   1.47059   0.00000  Uiso   1.00
C56    C     0.36095   0.70525   1.47059   0.00000  Uiso   1.00
C57    C     0.30534   0.62869   1.47059   0.00000  Uiso   1.00
H35    H     0.38283   0.73481   1.47059   0.00000  Uiso   1.00
C58    C     0.29484   0.65664   1.47059   0.00000  Uiso   1.00
C59    C     0.37145   0.67731   1.47059   0.00000  Uiso   1.00
H36    H     0.26503   0.64818   1.47059   0.00000  Uiso   1.00
C60    C     0.34375   0.63876   1.47059   0.00000  Uiso   1.00
H37    H     0.40126   0.68576   1.47059   0.00000  Uiso   1.00
H38    H     0.28346   0.59913   1.47059   0.00000  Uiso   1.00
C61    C     0.30491   0.12834   1.47059   0.00000  Uiso   1.00
C62    C     0.29487   0.15677   1.47059   0.00000  Uiso   1.00
C63    C     0.37142   0.17717   1.47059   0.00000  Uiso   1.00
H39    H     0.26532   0.14930   1.47059   0.00000  Uiso   1.00
C64    C     0.34345   0.13891   1.47059   0.00000  Uiso   1.00
C65    C     0.32284   0.19503   1.47059   0.00000  Uiso   1.00
H40    H     0.35189   0.11748   1.47059   0.00000  Uiso   1.00
C66    C     0.36138   0.20560   1.47059   0.00000  Uiso   1.00
H41    H     0.31440   0.21646   1.47059   0.00000  Uiso   1.00
H42    H     0.40097   0.18464   1.47059   0.00000  Uiso   1.00
loop_
_geom_bond_atom_site_label_1
_geom_bond_atom_site_label_2
_geom_bond_distance
_geom_bond_site_symmetry_2
_ccdc_geom_bond_type
C1     N1      1.362   .     S
C1     N3      1.361   .     S
C1     O1      1.412   .     S
N1     C2      1.361   .     S
C2     N2      1.361   .     S
C2     O2      1.412   .     S
N2     C3      1.360   .     S
C3     N3      1.361   .     S
C3     O3      1.412   .     S
O1     C4      1.420   .     S
O2     C5      1.419   .     S
O3     C6      1.419   .     S
C4     C21     1.414   .     S
C4     C17     1.427   .     S
C5     C16     1.413   .     S
C5     C12     1.426   .     S
C6     C11     1.413   .     S
C6     C7      1.427   .     S
C7     C8      1.410   .     S
C7     H1      1.074   .     S
C8     C9      1.410   .     S
C8     H2      1.085   .     S
C9     N4      1.445   .     S
C9     C10     1.418   .     S
C10    C11     1.409   .     S
C10    H3      1.081   .     S
C11    H4      1.085   .     S
C12    H5      1.074   .     S
C12    C13     1.411   .     S
C13    C14     1.410   .     S
C13    H6      1.085   .     S
C14    C15     1.418   .     S
C14    N5      1.445   .     S
C15    C16     1.409   .     S
C15    H7      1.082   .     S
C16    H8      1.085   .     S
C17    H9      1.074   .     S
C17    C18     1.410   .     S
C18    C19     1.410   .     S
C18    H10     1.085   .     S
C19    C20     1.418   .     S
C19    N6      1.445   .     S
C20    H11     1.082   .     S
C20    C21     1.409   .     S
C21    H12     1.085   .     S
N4     C22     1.303   .     S
C22    C60     1.580   .     S
C22    H13     1.082   .     S
N5     C23     1.303   .     S
C23    H14     1.082   .     S
C23    C54     1.580   .     S
N6     C24     1.303   .     S
C24    C66     1.580   .     S
C24    H15     1.082   .     S
C25    O4      1.412   .     S
C25    N9      1.361   .     S
C25    N7      1.362   .     S
N7     C26     1.361   .     S
C26    O5      1.412   .     S
C26    N8      1.361   .     S
N8     C27     1.360   .     S
C27    O6      1.412   .     S
C27    N9      1.361   .     S
O4     C28     1.420   .     S
O5     C29     1.419   .     S
O6     C30     1.419   .     S
C28    C41     1.427   .     S
C28    C45     1.414   .     S
C29    C36     1.426   .     S
C29    C40     1.413   .     S
C30    C35     1.413   .     S
C30    C31     1.427   .     S
C31    H16     1.074   .     S
C31    C32     1.410   .     S
C32    H17     1.085   .     S
C32    C33     1.410   .     S
C33    N10     1.445   .     S
C33    C34     1.418   .     S
C34    H18     1.081   .     S
C34    C35     1.409   .     S
C35    H19     1.085   .     S
C36    C37     1.411   .     S
C36    H20     1.074   .     S
C37    H21     1.085   .     S
C38    C39     1.418   .     S
C38    N11     1.445   .     S
C39    H22     1.082   .     S
C40    H23     1.085   .     S
C41    H24     1.074   .     S
C41    C42     1.410   .     S
C42    H25     1.085   .     S
C43    C44     1.418   .     S
C43    N12     1.445   .     S
C44    H26     1.082   .     S
C45    H27     1.085   .     S
N10    C46     1.303   .     S
C46    H28     1.082   .     S
C46    C55     1.580   .     S
N11    C47     1.303   .     S
C47    H29     1.082   .     S
C47    C49     1.580   .     S
N12    C48     1.303   .     S
C48    H30     1.082   .     S
C48    C61     1.580   .     S
C49    C52     1.406   .     S
C49    C50     1.406   .     S
C50    H31     1.085   .     S
C50    C53     1.400   .     S
C51    C54     1.406   .     S
C51    H34     1.085   .     S
C51    C52     1.400   .     S
C52    H32     1.085   .     S
C53    C54     1.406   .     S
C53    H33     1.085   .     S
C55    C58     1.406   .     S
C55    C56     1.406   .     S
C56    H35     1.085   .     S
C56    C59     1.400   .     S
C57    C60     1.406   .     S
C57    C58     1.400   .     S
C57    H38     1.085   .     S
C58    H36     1.085   .     S
C59    H37     1.085   .     S
C59    C60     1.406   .     S
C61    C64     1.406   .     S
C61    C62     1.406   .     S
C62    C65     1.400   .     S
C62    H39     1.085   .     S
C63    H42     1.085   .     S
C63    C66     1.406   .     S
C63    C64     1.400   .     S
C64    H40     1.085   .     S
C65    C66     1.406   .     S
C65    H41     1.085   .     S
