data_TPT-COF-1
_audit_creation_date              2016-12-13
_audit_creation_method            'Materials Studio'
_symmetry_space_group_name_H-M    'P1'
_symmetry_Int_Tables_number       1
_symmetry_cell_setting            triclinic
loop_
_symmetry_equiv_pos_as_xyz
  x,y,z
_cell_length_a                    28.8702
_cell_length_b                    28.9015
_cell_length_c                    3.4000
_cell_angle_alpha                 90.0000
_cell_angle_beta                  90.0000
_cell_angle_gamma                 119.9146
loop_
_atom_site_label
_atom_site_type_symbol
_atom_site_fract_x
_atom_site_fract_y
_atom_site_fract_z
_atom_site_U_iso_or_equiv
_atom_site_adp_type
_atom_site_occupancy
C1     C     0.50292   0.45393   1.47059   0.00000  Uiso   1.00
N1     N     0.54831   0.50256   1.47059   0.00000  Uiso   1.00
C2     C     0.54603   0.54849   1.47059   0.00000  Uiso   1.00
N2     N     0.49732   0.54521   1.47059   0.00000  Uiso   1.00
C3     C     0.45140   0.49714   1.47059   0.00000  Uiso   1.00
N3     N     0.45476   0.45180   1.47059   0.00000  Uiso   1.00
O1     O     0.50835   0.40800   1.47059   0.00000  Uiso   1.00
O2     O     0.59182   0.59984   1.47059   0.00000  Uiso   1.00
O3     O     0.40000   0.49168   1.47059   0.00000  Uiso   1.00
C4     C     0.46593   0.35425   1.47059   0.00000  Uiso   1.00
C5     C     0.64574   0.61154   1.47059   0.00000  Uiso   1.00
C6     C     0.38843   0.53398   1.47059   0.00000  Uiso   1.00
C7     C     0.42642   0.58972   1.47059   0.00000  Uiso   1.00
C8     C     0.40919   0.62760   1.47059   0.00000  Uiso   1.00
C9     C     0.35437   0.61148   1.47059   0.00000  Uiso   1.00
C10    C     0.31642   0.55615   1.47059   0.00000  Uiso   1.00
C11    C     0.33357   0.51827   1.47059   0.00000  Uiso   1.00
C12    C     0.66377   0.57370   1.47059   0.00000  Uiso   1.00
C13    C     0.71892   0.59107   1.47059   0.00000  Uiso   1.00
C14    C     0.75737   0.64589   1.47059   0.00000  Uiso   1.00
C15    C     0.73967   0.68367   1.47059   0.00000  Uiso   1.00
C16    C     0.68461   0.66638   1.47059   0.00000  Uiso   1.00
C17    C     0.41014   0.33668   1.47059   0.00000  Uiso   1.00
C18    C     0.37214   0.28171   1.47059   0.00000  Uiso   1.00
C19    C     0.38816   0.24294   1.47059   0.00000  Uiso   1.00
C20    C     0.44353   0.26012   1.47059   0.00000  Uiso   1.00
C21    C     0.48154   0.31503   1.47059   0.00000  Uiso   1.00
H1     H     0.46895   0.60594   1.47059   0.00000  Uiso   1.00
H2     H     0.43874   0.66982   1.47059   0.00000  Uiso   1.00
H3     H     0.27388   0.54159   1.47059   0.00000  Uiso   1.00
H4     H     0.30386   0.47612   1.47059   0.00000  Uiso   1.00
H5     H     0.63761   0.53120   1.47059   0.00000  Uiso   1.00
H6     H     0.73184   0.56165   1.47059   0.00000  Uiso   1.00
H7     H     0.76742   0.72618   1.47059   0.00000  Uiso   1.00
H8     H     0.67192   0.69596   1.47059   0.00000  Uiso   1.00
H9     H     0.39393   0.36300   1.47059   0.00000  Uiso   1.00
H10    H     0.32989   0.26919   1.47059   0.00000  Uiso   1.00
H11    H     0.45801   0.23208   1.47059   0.00000  Uiso   1.00
H12    H     0.52372   0.32731   1.47059   0.00000  Uiso   1.00
N4     N     0.33955   0.65241   1.47059   0.00000  Uiso   1.00
C22    C     0.29121   0.64509   1.47059   0.00000  Uiso   1.00
H13    H     0.25580   0.60598   1.47059   0.00000  Uiso   1.00
N5     N     0.81318   0.66089   1.47059   0.00000  Uiso   1.00
C23    C     0.85397   0.70925   1.47059   0.00000  Uiso   1.00
H14    H     0.85001   0.74455   1.47059   0.00000  Uiso   1.00
N6     N     0.34708   0.18734   1.47059   0.00000  Uiso   1.00
C24    C     0.35425   0.14626   1.47059   0.00000  Uiso   1.00
H15    H     0.39336   0.14979   1.47059   0.00000  Uiso   1.00
C25    C     0.21173   0.82895   1.47059   0.00000  Uiso   1.00
N7     N     0.21574   0.87795   1.47059   0.00000  Uiso   1.00
C26    C     0.17137   0.88309   1.47059   0.00000  Uiso   1.00
N8     N     0.12239   0.83818   1.47059   0.00000  Uiso   1.00
C27    C     0.11730   0.78878   1.47059   0.00000  Uiso   1.00
N9     N     0.16230   0.78472   1.47059   0.00000  Uiso   1.00
O4     O     0.25950   0.82674   1.47059   0.00000  Uiso   1.00
O5     O     0.17337   0.93290   1.47059   0.00000  Uiso   1.00
O6     O     0.06745   0.74108   1.47059   0.00000  Uiso   1.00
C28    C     0.26340   0.77968   1.47059   0.00000  Uiso   1.00
C29    C     0.22027   0.98385   1.47059   0.00000  Uiso   1.00
C30    C     0.01646   0.73716   1.47059   0.00000  Uiso   1.00
C31    C     0.00608   0.78056   1.47059   0.00000  Uiso   1.00
C32    C     0.95310   0.77085   1.47059   0.00000  Uiso   1.00
C33    C     0.90940   0.71818   1.47059   0.00000  Uiso   1.00
C34    C     0.91941   0.67503   1.47059   0.00000  Uiso   1.00
C35    C     0.97228   0.68466   1.47059   0.00000  Uiso   1.00
C36    C     0.27408   0.99426   1.47059   0.00000  Uiso   1.00
C37    C     0.31716   0.04722   1.47059   0.00000  Uiso   1.00
C38    C     0.30796   0.09084   1.47059   0.00000  Uiso   1.00
C39    C     0.25475   0.08078   1.47059   0.00000  Uiso   1.00
C40    C     0.21171   0.02795   1.47059   0.00000  Uiso   1.00
C41    C     0.21993   0.72603   1.47059   0.00000  Uiso   1.00
C42    C     0.22962   0.68277   1.47059   0.00000  Uiso   1.00
C43    C     0.28232   0.69160   1.47059   0.00000  Uiso   1.00
C44    C     0.32555   0.74463   1.47059   0.00000  Uiso   1.00
C45    C     0.31594   0.78787   1.47059   0.00000  Uiso   1.00
H16    H     0.03665   0.82186   1.47059   0.00000  Uiso   1.00
H17    H     0.94621   0.80451   1.47059   0.00000  Uiso   1.00
H18    H     0.88667   0.63411   1.47059   0.00000  Uiso   1.00
H19    H     0.97905   0.65095   1.47059   0.00000  Uiso   1.00
H20    H     0.28492   0.96372   1.47059   0.00000  Uiso   1.00
H21    H     0.35774   0.05415   1.47059   0.00000  Uiso   1.00
H22    H     0.24639   0.11345   1.47059   0.00000  Uiso   1.00
H23    H     0.17119   0.02113   1.47059   0.00000  Uiso   1.00
H24    H     0.17859   0.71537   1.47059   0.00000  Uiso   1.00
H25    H     0.19591   0.64233   1.47059   0.00000  Uiso   1.00
H26    H     0.36650   0.75271   1.47059   0.00000  Uiso   1.00
H27    H     0.34971   0.82825   1.47059   0.00000  Uiso   1.00
loop_
_geom_bond_atom_site_label_1
_geom_bond_atom_site_label_2
_geom_bond_distance
_geom_bond_site_symmetry_2
_ccdc_geom_bond_type
C1     N3      1.361   .     S
C1     N1      1.362   .     S
C1     O1      1.412   .     S
N1     C2      1.361   .     S
C2     N2      1.361   .     S
C2     O2      1.412   .     S
N2     C3      1.360   .     S
C3     N3      1.361   .     S
C3     O3      1.412   .     S
O1     C4      1.420   .     S
O2     C5      1.419   .     S
O3     C6      1.419   .     S
C4     C17     1.427   .     S
C4     C21     1.414   .     S
C5     C12     1.426   .     S
C5     C16     1.413   .     S
C6     C11     1.413   .     S
C6     C7      1.427   .     S
C7     H1      1.074   .     S
C7     C8      1.410   .     S
C8     C9      1.410   .     S
C8     H2      1.085   .     S
C9     N4      1.445   .     S
C9     C10     1.418   .     S
C10    H3      1.081   .     S
C10    C11     1.409   .     S
C11    H4      1.085   .     S
C12    C13     1.411   .     S
C12    H5      1.074   .     S
C13    C14     1.410   .     S
C13    H6      1.085   .     S
C14    N5      1.445   .     S
C14    C15     1.418   .     S
C15    C16     1.409   .     S
C15    H7      1.082   .     S
C16    H8      1.085   .     S
C17    H9      1.074   .     S
C17    C18     1.410   .     S
C18    H10     1.085   .     S
C18    C19     1.410   .     S
C19    C20     1.418   .     S
C19    N6      1.445   .     S
C20    H11     1.082   .     S
C20    C21     1.409   .     S
C21    H12     1.085   .     S
N4     C22     1.303   .     S
C22    C43     1.489   .     S
C22    H13     1.082   .     S
N5     C23     1.303   .     S
C23    C33     1.489   .     S
C23    H14     1.082   .     S
N6     C24     1.303   .     S
C24    H15     1.082   .     S
C24    C38     1.489   .     S
C25    N9      1.361   .     S
C25    O4      1.412   .     S
C25    N7      1.362   .     S
N7     C26     1.361   .     S
C26    O5      1.412   .     S
C26    N8      1.362   .     S
N8     C27     1.361   .     S
C27    N9      1.361   .     S
C27    O6      1.412   .     S
O4     C28     1.419   .     S
O5     C29     1.419   .     S
O6     C30     1.419   .     S
C28    C45     1.414   .     S
C28    C41     1.428   .     S
C29    C36     1.427   .     S
C30    C31     1.428   .     S
C31    H16     1.074   .     S
C32    C33     1.412   .     S
C32    H17     1.086   .     S
C33    C34     1.414   .     S
C34    C35     1.408   .     S
C34    H18     1.085   .     S
C35    H19     1.085   .     S
C36    H20     1.074   .     S
C37    H21     1.086   .     S
C37    C38     1.412   .     S
C38    C39     1.414   .     S
C39    H22     1.085   .     S
C39    C40     1.408   .     S
C40    H23     1.085   .     S
C41    H24     1.074   .     S
C41    C42     1.411   .     S
C42    C43     1.412   .     S
C42    H25     1.086   .     S
C43    C44     1.414   .     S
C44    H26     1.085   .     S
C44    C45     1.408   .     S
C45    H27     1.085   .     S
