data_TRIPTA
_audit_creation_date              2016-12-13
_audit_creation_method            'Materials Studio'
_symmetry_space_group_name_H-M    'P1'
_symmetry_Int_Tables_number       1
_symmetry_cell_setting            triclinic
loop_
_symmetry_equiv_pos_as_xyz
  x,y,z
_cell_length_a                    18.7069
_cell_length_b                    18.7069
_cell_length_c                    3.5316
_cell_angle_alpha                 90.0000
_cell_angle_beta                  90.0000
_cell_angle_gamma                 120.0000
loop_
_atom_site_label
_atom_site_type_symbol
_atom_site_fract_x
_atom_site_fract_y
_atom_site_fract_z
_atom_site_U_iso_or_equiv
_atom_site_adp_type
_atom_site_occupancy
C1     C     0.38960   0.54964   0.50001   0.00000  Uiso   1.00
C2     C     0.45036   0.83996   0.50001   0.00000  Uiso   1.00
C3     C     0.16004   0.61040   0.50001   0.00000  Uiso   1.00
N1     N     0.46980   0.56891   0.50001   0.00000  Uiso   1.00
N2     N     0.43109   0.90089   0.50001   0.00000  Uiso   1.00
N3     N     0.09911   0.53020   0.50001   0.00000  Uiso   1.00
C4     C     0.50283   0.51883   0.50001   0.00000  Uiso   1.00
C5     C     0.48117   0.98400   0.50001   0.00000  Uiso   1.00
C6     C     0.01600   0.49717   0.50001   0.00000  Uiso   1.00
C7     C     0.58966   0.55830   0.50001   0.00000  Uiso   1.00
C8     C     0.44169   0.03136   0.50001   0.00000  Uiso   1.00
C9     C     0.96864   0.41034   0.50001   0.00000  Uiso   1.00
C10    C     0.63049   0.51231   0.50001   0.00000  Uiso   1.00
C11    C     0.48768   0.11817   0.50001   0.00000  Uiso   1.00
C12    C     0.88182   0.36951   0.50001   0.00000  Uiso   1.00
H1     H     0.34528   0.48848   0.50001   0.00000  Uiso   1.00
H2     H     0.51152   0.85680   0.50001   0.00000  Uiso   1.00
H3     H     0.14319   0.65472   0.50001   0.00000  Uiso   1.00
H4     H     0.62409   0.62140   0.50001   0.00000  Uiso   1.00
H5     H     0.37860   0.00268   0.50001   0.00000  Uiso   1.00
H6     H     0.99731   0.37591   0.50001   0.00000  Uiso   1.00
H7     H     0.69366   0.54388   0.50001   0.00000  Uiso   1.00
H8     H     0.45612   0.14979   0.50001   0.00000  Uiso   1.00
H9     H     0.85021   0.30633   0.50001   0.00000  Uiso   1.00
C13    C     0.58583   0.42478   0.50001   0.00000  Uiso   1.00
C14    C     0.57522   0.16105   0.50001   0.00000  Uiso   1.00
C15    C     0.83895   0.41416   0.50001   0.00000  Uiso   1.00
C16    C     0.49844   0.38559   0.50001   0.00000  Uiso   1.00
C17    C     0.61441   0.11285   0.50001   0.00000  Uiso   1.00
C18    C     0.88715   0.50156   0.50001   0.00000  Uiso   1.00
C19    C     0.45764   0.43163   0.50001   0.00000  Uiso   1.00
C20    C     0.56837   0.02601   0.50001   0.00000  Uiso   1.00
C21    C     0.97399   0.54235   0.50001   0.00000  Uiso   1.00
H10    H     0.46315   0.32256   0.50001   0.00000  Uiso   1.00
H11    H     0.67743   0.14058   0.50001   0.00000  Uiso   1.00
H12    H     0.85942   0.53685   0.50001   0.00000  Uiso   1.00
H13    H     0.39473   0.40045   0.50001   0.00000  Uiso   1.00
H14    H     0.59955   0.99428   0.50001   0.00000  Uiso   1.00
H15    H     0.00571   0.60526   0.50001   0.00000  Uiso   1.00
H16    H     0.50907   0.62776   0.50001   0.00000  Uiso   1.00
H17    H     0.37224   0.88131   0.50001   0.00000  Uiso   1.00
H18    H     0.11869   0.49093   0.50001   0.00000  Uiso   1.00
N4     N     0.58431   0.29470   0.50001   0.00000  Uiso   1.00
N5     N     0.70530   0.28961   0.50001   0.00000  Uiso   1.00
N6     N     0.71038   0.41569   0.50001   0.00000  Uiso   1.00
C22    C     0.62684   0.37840   0.50001   0.00000  Uiso   1.00
C23    C     0.62160   0.24844   0.50001   0.00000  Uiso   1.00
C24    C     0.75156   0.37316   0.50001   0.00000  Uiso   1.00
C25    C     0.41837   0.69573   0.50001   0.00000  Uiso   1.00
C26    C     0.30427   0.72264   0.50001   0.00000  Uiso   1.00
C27    C     0.27736   0.58163   0.50001   0.00000  Uiso   1.00
C28    C     0.36317   0.60907   0.50001   0.00000  Uiso   1.00
C29    C     0.39093   0.75410   0.50001   0.00000  Uiso   1.00
C30    C     0.24590   0.63682   0.50001   0.00000  Uiso   1.00
O1     O     0.49486   0.72325   0.50001   0.00000  Uiso   1.00
O2     O     0.27675   0.77160   0.50001   0.00000  Uiso   1.00
O3     O     0.22839   0.50514   0.50001   0.00000  Uiso   1.00
loop_
_geom_bond_atom_site_label_1
_geom_bond_atom_site_label_2
_geom_bond_distance
_geom_bond_site_symmetry_2
_ccdc_geom_bond_type
C1     N1      1.356   .     S
C1     C28     1.425   .     S
C1     H1      1.024   .     S
C2     H2      1.024   .     S
C2     N2      1.356   .     S
C2     C29     1.425   .     S
C3     H3      1.024   .     S
C3     C30     1.425   .     S
C3     N3      1.356   .     S
N1     H16     0.971   .     S
N1     C4      1.356   .     S
N2     H17     0.971   .     S
N2     C5      1.356   .     S
N3     H18     0.971   .     S
N3     C6      1.356   .     S
C4     C7      1.409   .     S
C4     C19     1.413   .     S
C7     H4      1.024   .     S
C7     C10     1.407   .     S
C8     H5      1.024   .     S
C8     C11     1.407   .     S
C9     H6      1.024   .     S
C9     C12     1.407   .     S
C10    H7      1.023   .     S
C10    C13     1.418   .     S
C11    H8      1.023   .     S
C11    C14     1.418   .     S
C12    C15     1.418   .     S
C12    H9      1.023   .     S
C13    C16     1.418   .     S
C13    C22     1.417   .     S
C14    C17     1.418   .     S
C14    C23     1.417   .     S
C15    C24     1.417   .     S
C15    C18     1.418   .     S
C16    C19     1.408   .     S
C16    H10     1.024   .     S
C17    H11     1.024   .     S
C17    C20     1.408   .     S
C18    H12     1.024   .     S
C18    C21     1.408   .     S
C19    H13     1.019   .     S
N4     C23     1.356   .     S
N4     C22     1.356   .     S
N5     C23     1.356   .     S
N5     C24     1.356   .     S
N6     C24     1.356   .     S
N6     C22     1.356   .     S
C25    C29     1.420   .     S
C25    O1      1.255   .     S
C25    C28     1.421   .     S
C26    C29     1.421   .     S
C26    O2      1.255   .     S
C26    C30     1.420   .     S
C27    C30     1.421   .     S
C27    C28     1.420   .     S
C27    O3      1.255   .     S
