data_TT-COF-FF
_audit_creation_date              2016-12-13
_audit_creation_method            'Materials Studio'
_symmetry_space_group_name_H-M    'P1'
_symmetry_Int_Tables_number       1
_symmetry_cell_setting            triclinic
loop_
_symmetry_equiv_pos_as_xyz
  x,y,z
_cell_length_a                    32.8400
_cell_length_b                    32.8400
_cell_length_c                    3.4500
_cell_angle_alpha                 90.0000
_cell_angle_beta                  90.0000
_cell_angle_gamma                 120.0000
loop_
_atom_site_label
_atom_site_type_symbol
_atom_site_fract_x
_atom_site_fract_y
_atom_site_fract_z
_atom_site_U_iso_or_equiv
_atom_site_adp_type
_atom_site_occupancy
O1     O     0.38627   0.54474   0.50000   0.00000  Uiso   1.00
C1     C     0.33610   0.58098   0.50000   0.00000  Uiso   1.00
C2     C     0.33493   0.62329   0.50000   0.00000  Uiso   1.00
C3     C     0.37944   0.58304   0.50000   0.00000  Uiso   1.00
B1     B     0.43773   0.56900   0.50000   0.00000  Uiso   1.00
C4     C     0.46592   0.54266   0.50000   0.00000  Uiso   1.00
O2     O     0.53978   0.37966   0.50000   0.00000  Uiso   1.00
C5     C     0.57902   0.33223   0.50000   0.00000  Uiso   1.00
C6     C     0.62229   0.33333   0.50000   0.00000  Uiso   1.00
C7     C     0.57921   0.37468   0.50000   0.00000  Uiso   1.00
S1     S     0.52663   0.57219   0.50000   0.00000  Uiso   1.00
C8     C     0.52197   0.51839   0.50000   0.00000  Uiso   1.00
C9     C     0.44396   0.49389   0.50000   0.00000  Uiso   1.00
H1     H     0.30596   0.54627   0.50000   0.00000  Uiso   1.00
H2     H     0.54496   0.30118   0.50000   0.00000  Uiso   1.00
H3     H     0.40644   0.46960   0.50000   0.00000  Uiso   1.00
O3     O     0.45526   0.84153   0.50000   0.00000  Uiso   1.00
C10    C     0.41902   0.75512   0.50000   0.00000  Uiso   1.00
C11    C     0.37671   0.71164   0.50000   0.00000  Uiso   1.00
C12    C     0.41696   0.79640   0.50000   0.00000  Uiso   1.00
B2     B     0.43100   0.86873   0.50000   0.00000  Uiso   1.00
C13    C     0.45734   0.92326   0.50000   0.00000  Uiso   1.00
O4     O     0.62034   0.16012   0.50000   0.00000  Uiso   1.00
C14    C     0.66777   0.24679   0.50000   0.00000  Uiso   1.00
C15    C     0.66667   0.28896   0.50000   0.00000  Uiso   1.00
C16    C     0.62532   0.20453   0.50000   0.00000  Uiso   1.00
S2     S     0.42781   0.95444   0.50000   0.00000  Uiso   1.00
C17    C     0.48161   0.00358   0.50000   0.00000  Uiso   1.00
C18    C     0.50611   0.95007   0.50000   0.00000  Uiso   1.00
H4     H     0.45373   0.75969   0.50000   0.00000  Uiso   1.00
H5     H     0.69882   0.24378   0.50000   0.00000  Uiso   1.00
H6     H     0.53040   0.93683   0.50000   0.00000  Uiso   1.00
O5     O     0.15847   0.61373   0.50000   0.00000  Uiso   1.00
C19    C     0.24488   0.66390   0.50000   0.00000  Uiso   1.00
C20    C     0.28836   0.66507   0.50000   0.00000  Uiso   1.00
C21    C     0.20360   0.62056   0.50000   0.00000  Uiso   1.00
B3     B     0.13127   0.56227   0.50000   0.00000  Uiso   1.00
C22    C     0.07674   0.53408   0.50000   0.00000  Uiso   1.00
O6     O     0.83988   0.46022   0.50000   0.00000  Uiso   1.00
C23    C     0.75321   0.42098   0.50000   0.00000  Uiso   1.00
C24    C     0.71104   0.37771   0.50000   0.00000  Uiso   1.00
C25    C     0.79547   0.42079   0.50000   0.00000  Uiso   1.00
S3     S     0.04556   0.47337   0.50000   0.00000  Uiso   1.00
C26    C     0.99642   0.47803   0.50000   0.00000  Uiso   1.00
C27    C     0.04993   0.55604   0.50000   0.00000  Uiso   1.00
H7     H     0.24031   0.69404   0.50000   0.00000  Uiso   1.00
H8     H     0.75622   0.45504   0.50000   0.00000  Uiso   1.00
H9     H     0.06317   0.59356   0.50000   0.00000  Uiso   1.00
O7     O     0.61373   0.45526   0.50000   0.00000  Uiso   1.00
C28    C     0.66390   0.41902   0.50000   0.00000  Uiso   1.00
C29    C     0.66507   0.37671   0.50000   0.00000  Uiso   1.00
C30    C     0.62056   0.41696   0.50000   0.00000  Uiso   1.00
B4     B     0.56227   0.43100   0.50000   0.00000  Uiso   1.00
C31    C     0.53408   0.45734   0.50000   0.00000  Uiso   1.00
O8     O     0.46022   0.62034   0.50000   0.00000  Uiso   1.00
C32    C     0.42098   0.66777   0.50000   0.00000  Uiso   1.00
C33    C     0.37771   0.66667   0.50000   0.00000  Uiso   1.00
C34    C     0.42079   0.62532   0.50000   0.00000  Uiso   1.00
S4     S     0.47337   0.42781   0.50000   0.00000  Uiso   1.00
C35    C     0.47803   0.48161   0.50000   0.00000  Uiso   1.00
C36    C     0.55604   0.50611   0.50000   0.00000  Uiso   1.00
H10    H     0.69404   0.45373   0.50000   0.00000  Uiso   1.00
H11    H     0.45504   0.69882   0.50000   0.00000  Uiso   1.00
H12    H     0.59356   0.53040   0.50000   0.00000  Uiso   1.00
O9     O     0.54474   0.15847   0.50000   0.00000  Uiso   1.00
C37    C     0.58098   0.24488   0.50000   0.00000  Uiso   1.00
C38    C     0.62329   0.28836   0.50000   0.00000  Uiso   1.00
C39    C     0.58304   0.20360   0.50000   0.00000  Uiso   1.00
B5     B     0.56900   0.13127   0.50000   0.00000  Uiso   1.00
C40    C     0.54266   0.07674   0.50000   0.00000  Uiso   1.00
O10    O     0.37966   0.83988   0.50000   0.00000  Uiso   1.00
C41    C     0.33223   0.75321   0.50000   0.00000  Uiso   1.00
C42    C     0.33333   0.71104   0.50000   0.00000  Uiso   1.00
C43    C     0.37468   0.79547   0.50000   0.00000  Uiso   1.00
S5     S     0.57219   0.04556   0.50000   0.00000  Uiso   1.00
C44    C     0.51839   0.99642   0.50000   0.00000  Uiso   1.00
C45    C     0.49389   0.04993   0.50000   0.00000  Uiso   1.00
H13    H     0.54627   0.24031   0.50000   0.00000  Uiso   1.00
H14    H     0.30118   0.75622   0.50000   0.00000  Uiso   1.00
H15    H     0.46960   0.06317   0.50000   0.00000  Uiso   1.00
O11    O     0.84153   0.38627   0.50000   0.00000  Uiso   1.00
C46    C     0.75512   0.33610   0.50000   0.00000  Uiso   1.00
C47    C     0.71164   0.33493   0.50000   0.00000  Uiso   1.00
C48    C     0.79640   0.37944   0.50000   0.00000  Uiso   1.00
B6     B     0.86873   0.43773   0.50000   0.00000  Uiso   1.00
C49    C     0.92326   0.46592   0.50000   0.00000  Uiso   1.00
O12    O     0.16012   0.53978   0.50000   0.00000  Uiso   1.00
C50    C     0.24679   0.57902   0.50000   0.00000  Uiso   1.00
C51    C     0.28896   0.62229   0.50000   0.00000  Uiso   1.00
C52    C     0.20453   0.57921   0.50000   0.00000  Uiso   1.00
S6     S     0.95444   0.52663   0.50000   0.00000  Uiso   1.00
C53    C     0.00358   0.52197   0.50000   0.00000  Uiso   1.00
C54    C     0.95007   0.44396   0.50000   0.00000  Uiso   1.00
H16    H     0.75969   0.30596   0.50000   0.00000  Uiso   1.00
H17    H     0.24378   0.54496   0.50000   0.00000  Uiso   1.00
H18    H     0.93683   0.40644   0.50000   0.00000  Uiso   1.00
loop_
_geom_bond_atom_site_label_1
_geom_bond_atom_site_label_2
_geom_bond_distance
_geom_bond_site_symmetry_2
_ccdc_geom_bond_type
O1     C3      1.384   .     S
O1     B1      1.464   .     S
C1     H1      1.073   .     S
C1     C3      1.391   .     S
C1     C2      1.409   .     S
C2     C33     1.415   .     S
C2     C51     1.494   .     S
C3     C34     1.373   .     S
B1     C4      1.551   .     S
B1     O8      1.464   .     S
C4     S1      1.727   .     S
C4     C9      1.389   .     S
O2     C7      1.384   .     S
O2     B4      1.464   .     S
C5     H2      1.073   .     S
C5     C6      1.403   .     S
C5     C7      1.391   .     S
C6     C38     1.494   .     S
C6     C29     1.415   .     S
C7     C30     1.373   .     S
S1     C8      1.695   .     S
C8     C36     1.366   .     S
C8     C35     1.341   .     S
C9     H3      1.082   .     S
C9     C35     1.366   .     S
O3     B2      1.464   .     S
O3     C12     1.384   .     S
C10    C11     1.409   .     S
C10    C12     1.391   .     S
C10    H4      1.073   .     S
C11    C42     1.415   .     S
C11    C33     1.494   .     S
C12    C43     1.373   .     S
B2     C13     1.551   .     S
B2     O10     1.464   .     S
C13    S2      1.727   .     S
C13    C18     1.389   .     S
O4     B5      1.464   .     S
O4     C16     1.384   .     S
C14    C16     1.391   .     S
C14    H5      1.073   .     S
C14    C15     1.403   .     S
C15    C47     1.494   .     S
C15    C38     1.415   .     S
C16    C39     1.373   .     S
C17    C45     1.366   .     S
C18    H6      1.082   .     S
C18    C44     1.366   .     S
O5     C21     1.384   .     S
O5     B3      1.464   .     S
C19    C21     1.391   .     S
C19    C20     1.409   .     S
C19    H7      1.073   .     S
C20    C51     1.415   .     S
C20    C42     1.494   .     S
C21    C52     1.373   .     S
B3     C22     1.551   .     S
B3     O12     1.464   .     S
C22    C27     1.389   .     S
C22    S3      1.727   .     S
O6     C25     1.384   .     S
O6     B6      1.464   .     S
C23    H8      1.073   .     S
C23    C25     1.391   .     S
C23    C24     1.403   .     S
C24    C29     1.494   .     S
C24    C47     1.415   .     S
C25    C48     1.373   .     S
C26    C54     1.366   .     S
C27    C53     1.366   .     S
C27    H9      1.082   .     S
O7     B4      1.464   .     S
O7     C30     1.384   .     S
C28    C29     1.409   .     S
C28    C30     1.391   .     S
C28    H10     1.073   .     S
B4     C31     1.551   .     S
C31    S4      1.727   .     S
C31    C36     1.389   .     S
O8     C34     1.384   .     S
C32    C34     1.391   .     S
C32    C33     1.403   .     S
C32    H11     1.073   .     S
S4     C35     1.695   .     S
C36    H12     1.082   .     S
O9     B5      1.464   .     S
O9     C39     1.384   .     S
C37    C39     1.391   .     S
C37    H13     1.073   .     S
C37    C38     1.409   .     S
B5     C40     1.551   .     S
C40    C45     1.389   .     S
C40    S5      1.727   .     S
O10    C43     1.384   .     S
C41    C42     1.403   .     S
C41    H14     1.073   .     S
C41    C43     1.391   .     S
C45    H15     1.082   .     S
O11    C48     1.384   .     S
O11    B6      1.464   .     S
C46    H16     1.073   .     S
C46    C47     1.409   .     S
C46    C48     1.391   .     S
B6     C49     1.551   .     S
C49    C54     1.389   .     S
C49    S6      1.727   .     S
O12    C52     1.384   .     S
C50    H17     1.073   .     S
C50    C52     1.391   .     S
C50    C51     1.403   .     S
C54    H18     1.082   .     S
