data_TTF-Py-COF
_audit_creation_date              2016-12-13
_audit_creation_method            'Materials Studio'
_symmetry_space_group_name_H-M    'P1'
_symmetry_Int_Tables_number       1
_symmetry_cell_setting            triclinic
loop_
_symmetry_equiv_pos_as_xyz
  x,y,z
_cell_length_a                    27.3713
_cell_length_b                    22.8199
_cell_length_c                    4.7178
_cell_angle_alpha                 90.0000
_cell_angle_beta                  90.0000
_cell_angle_gamma                 90.0000
loop_
_atom_site_label
_atom_site_type_symbol
_atom_site_fract_x
_atom_site_fract_y
_atom_site_fract_z
_atom_site_U_iso_or_equiv
_atom_site_adp_type
_atom_site_occupancy
C1     C     0.72732   0.19429   0.08872   0.00000  Uiso   1.00
C2     C     0.27268   0.80570   0.08872   0.00000  Uiso   1.00
C3     C     0.27268   0.19429  -0.08872   0.00000  Uiso   1.00
C4     C     0.72732   0.80570  -0.08872   0.00000  Uiso   1.00
N5     N     0.72676   0.24643  -0.04792   0.00000  Uiso   1.00
N6     N     0.27324   0.75356  -0.04792   0.00000  Uiso   1.00
N7     N     0.27324   0.24643   0.04792   0.00000  Uiso   1.00
N8     N     0.72676   0.75356   0.04792   0.00000  Uiso   1.00
C9     C     0.69595   0.29268  -0.02562   0.00000  Uiso   1.00
C10    C     0.36527   0.60549  -0.01197   0.00000  Uiso   1.00
C11    C     0.30405   0.70732  -0.02562   0.00000  Uiso   1.00
C12    C     0.63473   0.39451  -0.01197   0.00000  Uiso   1.00
C13    C     0.30405   0.29268   0.02562   0.00000  Uiso   1.00
C14    C     0.63473   0.60549   0.01197   0.00000  Uiso   1.00
C15    C     0.69595   0.70732   0.02562   0.00000  Uiso   1.00
C16    C     0.36527   0.39451   0.01197   0.00000  Uiso   1.00
C17    C     0.70364   0.33931  -0.21547   0.00000  Uiso   1.00
C18    C     0.37155   0.65172   0.18476   0.00000  Uiso   1.00
C19    C     0.29636   0.66069  -0.21547   0.00000  Uiso   1.00
C20    C     0.62845   0.34828   0.18476   0.00000  Uiso   1.00
C21    C     0.29636   0.33931   0.21547   0.00000  Uiso   1.00
C22    C     0.62845   0.65172  -0.18476   0.00000  Uiso   1.00
C23    C     0.70364   0.66069   0.21547   0.00000  Uiso   1.00
C24    C     0.37155   0.34828  -0.18476   0.00000  Uiso   1.00
C25    C     0.67322   0.38903  -0.21138   0.00000  Uiso   1.00
C26    C     0.34221   0.70237   0.17458   0.00000  Uiso   1.00
C27    C     0.32678   0.61097  -0.21138   0.00000  Uiso   1.00
C28    C     0.65779   0.29763   0.17458   0.00000  Uiso   1.00
C29    C     0.32678   0.38903   0.21138   0.00000  Uiso   1.00
C30    C     0.65779   0.70237  -0.17458   0.00000  Uiso   1.00
C31    C     0.67322   0.61097   0.21138   0.00000  Uiso   1.00
C32    C     0.34221   0.29763  -0.17458   0.00000  Uiso   1.00
H33    H     0.70019   0.18487   0.23062   0.00000  Uiso   1.00
H34    H     0.29981   0.81512   0.23062   0.00000  Uiso   1.00
H35    H     0.29981   0.18487  -0.23062   0.00000  Uiso   1.00
H36    H     0.70019   0.81512  -0.23062   0.00000  Uiso   1.00
H37    H     0.73140   0.33695  -0.36046   0.00000  Uiso   1.00
H38    H     0.39763   0.64876   0.33972   0.00000  Uiso   1.00
H39    H     0.26860   0.66305  -0.36046   0.00000  Uiso   1.00
H40    H     0.60237   0.35124   0.33972   0.00000  Uiso   1.00
H41    H     0.26860   0.33695   0.36046   0.00000  Uiso   1.00
H42    H     0.60237   0.64876  -0.33972   0.00000  Uiso   1.00
H43    H     0.73140   0.66305   0.36046   0.00000  Uiso   1.00
H44    H     0.39763   0.35124  -0.33972   0.00000  Uiso   1.00
H45    H     0.67937   0.42134  -0.35778   0.00000  Uiso   1.00
H46    H     0.34860   0.73499   0.31774   0.00000  Uiso   1.00
H47    H     0.32063   0.57866  -0.35778   0.00000  Uiso   1.00
H48    H     0.65140   0.26501   0.31774   0.00000  Uiso   1.00
H49    H     0.32063   0.42134   0.35778   0.00000  Uiso   1.00
H50    H     0.65140   0.73499  -0.31774   0.00000  Uiso   1.00
H51    H     0.67937   0.57866   0.35778   0.00000  Uiso   1.00
H52    H     0.34860   0.26501  -0.31774   0.00000  Uiso   1.00
S53    S     0.94132   0.93697   0.00423   0.00000  Uiso   1.00
S54    S     0.05868   0.06302   0.00423   0.00000  Uiso   1.00
S55    S     0.05868   0.93697  -0.00423   0.00000  Uiso   1.00
S56    S     0.94132   0.06302  -0.00423   0.00000  Uiso   1.00
C57    C     0.97525   0.00000   0.00000   0.00000  Uiso   1.00
C58    C     0.02475   0.00000   0.00000   0.00000  Uiso   1.00
C59    C     0.88374   0.96911   0.00484   0.00000  Uiso   1.00
C60    C     0.11625   0.03089   0.00484   0.00000  Uiso   1.00
C61    C     0.11625   0.96911  -0.00484   0.00000  Uiso   1.00
C62    C     0.88374   0.03089  -0.00484   0.00000  Uiso   1.00
C63    C     0.84312   0.93055   0.00075   0.00000  Uiso   1.00
C64    C     0.15688   0.06945   0.00075   0.00000  Uiso   1.00
C65    C     0.15688   0.93055  -0.00075   0.00000  Uiso   1.00
C66    C     0.84312   0.06945  -0.00075   0.00000  Uiso   1.00
C67    C     0.84219   0.87891   0.16776   0.00000  Uiso   1.00
C68    C     0.15781   0.12109   0.16776   0.00000  Uiso   1.00
C69    C     0.15781   0.87891  -0.16776   0.00000  Uiso   1.00
C70    C     0.84219   0.12109  -0.16776   0.00000  Uiso   1.00
C71    C     0.80386   0.83796   0.14424   0.00000  Uiso   1.00
C72    C     0.19614   0.16204   0.14424   0.00000  Uiso   1.00
C73    C     0.19614   0.83796  -0.14424   0.00000  Uiso   1.00
C74    C     0.80386   0.16204  -0.14424   0.00000  Uiso   1.00
C75    C     0.76473   0.84727  -0.04652   0.00000  Uiso   1.00
C76    C     0.23527   0.15272  -0.04652   0.00000  Uiso   1.00
C77    C     0.23527   0.84727   0.04652   0.00000  Uiso   1.00
C78    C     0.76473   0.15272   0.04652   0.00000  Uiso   1.00
C79    C     0.76428   0.90004  -0.20315   0.00000  Uiso   1.00
C80    C     0.23572   0.09995  -0.20315   0.00000  Uiso   1.00
C81    C     0.23572   0.90004   0.20315   0.00000  Uiso   1.00
C82    C     0.76428   0.09995   0.20315   0.00000  Uiso   1.00
C83    C     0.80269   0.94061  -0.17864   0.00000  Uiso   1.00
C84    C     0.19731   0.05939  -0.17864   0.00000  Uiso   1.00
C85    C     0.19731   0.94061   0.17864   0.00000  Uiso   1.00
C86    C     0.80269   0.05939   0.17864   0.00000  Uiso   1.00
H87    H     0.86996   0.87035   0.30759   0.00000  Uiso   1.00
H88    H     0.13004   0.12965   0.30759   0.00000  Uiso   1.00
H89    H     0.13004   0.87035  -0.30759   0.00000  Uiso   1.00
H90    H     0.86996   0.12965  -0.30759   0.00000  Uiso   1.00
H91    H     0.80507   0.80088   0.26624   0.00000  Uiso   1.00
H92    H     0.19493   0.19912   0.26624   0.00000  Uiso   1.00
H93    H     0.19493   0.80088  -0.26624   0.00000  Uiso   1.00
H94    H     0.80507   0.19912  -0.26624   0.00000  Uiso   1.00
H95    H     0.73628   0.90918  -0.34026   0.00000  Uiso   1.00
H96    H     0.26372   0.09081  -0.34026   0.00000  Uiso   1.00
H97    H     0.26372   0.90918   0.34026   0.00000  Uiso   1.00
H98    H     0.73628   0.09081   0.34026   0.00000  Uiso   1.00
H99    H     0.80112   0.97762  -0.29667   0.00000  Uiso   1.00
H100   H     0.19888   0.02238  -0.29667   0.00000  Uiso   1.00
H101   H     0.19888   0.97762   0.29667   0.00000  Uiso   1.00
H102   H     0.80112   0.02238   0.29667   0.00000  Uiso   1.00
C103   C     0.60491   0.44559  -0.00686   0.00000  Uiso   1.00
C104   C     0.55274   0.44594  -0.00575   0.00000  Uiso   1.00
C105   C     0.52542   0.60654   0.01093   0.00000  Uiso   1.00
H106   H     0.54188   0.64642   0.02957   0.00000  Uiso   1.00
C107   C     0.39509   0.55441  -0.00686   0.00000  Uiso   1.00
C108   C     0.44726   0.55406  -0.00575   0.00000  Uiso   1.00
C109   C     0.47458   0.39346   0.01093   0.00000  Uiso   1.00
H110   H     0.45812   0.35358   0.02957   0.00000  Uiso   1.00
C111   C     0.39509   0.44559   0.00686   0.00000  Uiso   1.00
C112   C     0.44726   0.44594   0.00575   0.00000  Uiso   1.00
C113   C     0.47458   0.60654  -0.01093   0.00000  Uiso   1.00
H114   H     0.45812   0.64642  -0.02957   0.00000  Uiso   1.00
C115   C     0.60491   0.55441   0.00686   0.00000  Uiso   1.00
C116   C     0.55274   0.55406   0.00575   0.00000  Uiso   1.00
C117   C     0.52542   0.39346  -0.01093   0.00000  Uiso   1.00
H118   H     0.54188   0.35358  -0.02957   0.00000  Uiso   1.00
C119   C     0.62938   0.50000   0.00000   0.00000  Uiso   1.00
C120   C     0.52630   0.50000   0.00000   0.00000  Uiso   1.00
H121   H     0.66687   0.50000   0.00000   0.00000  Uiso   1.00
C122   C     0.37062   0.50000   0.00000   0.00000  Uiso   1.00
C123   C     0.47370   0.50000   0.00000   0.00000  Uiso   1.00
H124   H     0.33313   0.50000   0.00000   0.00000  Uiso   1.00
loop_
_geom_bond_atom_site_label_1
_geom_bond_atom_site_label_2
_geom_bond_distance
_geom_bond_site_symmetry_2
_ccdc_geom_bond_type
C1     H33     1.023   .     S
C1     C78     1.410   .     S
C1     N5      1.353   .     S
C2     H34     1.023   .     S
C2     C77     1.410   .     S
C2     N6      1.353   .     S
C3     H35     1.023   .     S
C3     C76     1.410   .     S
C3     N7      1.353   .     S
C4     H36     1.023   .     S
C4     C75     1.410   .     S
C4     N8      1.353   .     S
N5     C9      1.355   .     S
N6     C11     1.355   .     S
N7     C13     1.355   .     S
N8     C15     1.355   .     S
C9     C17     1.407   .     S
C9     C28     1.413   .     S
C10    C107    1.423   .     S
C10    C27     1.418   .     S
C10    C18     1.416   .     S
C11    C19     1.407   .     S
C11    C26     1.413   .     S
C12    C25     1.418   .     S
C12    C103    1.423   .     S
C12    C20     1.416   .     S
C13    C21     1.407   .     S
C13    C32     1.413   .     S
C14    C31     1.418   .     S
C14    C115    1.423   .     S
C14    C22     1.416   .     S
C15    C23     1.407   .     S
C15    C30     1.413   .     S
C16    C29     1.418   .     S
C16    C111    1.423   .     S
C16    C24     1.416   .     S
C17    H37     1.024   .     S
C17    C25     1.408   .     S
C18    H38     1.024   .     S
C18    C26     1.408   .     S
C19    H39     1.024   .     S
C19    C27     1.408   .     S
C20    H40     1.024   .     S
C20    C28     1.408   .     S
C21    C29     1.408   .     S
C21    H41     1.024   .     S
C22    C30     1.408   .     S
C22    H42     1.024   .     S
C23    H43     1.024   .     S
C23    C31     1.408   .     S
C24    H44     1.024   .     S
C24    C32     1.408   .     S
C25    H45     1.024   .     S
C26    H46     1.020   .     S
C27    H47     1.024   .     S
C28    H48     1.020   .     S
C29    H49     1.024   .     S
C30    H50     1.020   .     S
C31    H51     1.024   .     S
C32    H52     1.020   .     S
S53    C59     1.738   .     S
S54    C60     1.738   .     S
S54    C58     1.712   .     S
S55    C61     1.738   .     S
S56    C62     1.738   .     S
S56    C57     1.712   .     S
C59    C63     1.418   .     S
C60    C64     1.418   .     S
C61    C65     1.418   .     S
C62    C66     1.418   .     S
C63    C67     1.418   .     S
C63    C83     1.412   .     S
C64    C68     1.418   .     S
C64    C84     1.412   .     S
C65    C69     1.418   .     S
C65    C85     1.412   .     S
C66    C70     1.418   .     S
C66    C86     1.412   .     S
C67    H87     1.025   .     S
C67    C71     1.409   .     S
C68    H88     1.025   .     S
C68    C72     1.409   .     S
C69    H89     1.025   .     S
C69    C73     1.409   .     S
C70    C74     1.409   .     S
C70    H90     1.025   .     S
C71    H91     1.024   .     S
C71    C75     1.415   .     S
C72    H92     1.024   .     S
C72    C76     1.415   .     S
C73    H93     1.024   .     S
C73    C77     1.415   .     S
C74    H94     1.024   .     S
C74    C78     1.415   .     S
C75    C79     1.413   .     S
C76    C80     1.413   .     S
C77    C81     1.413   .     S
C78    C82     1.413   .     S
C79    H95     1.024   .     S
C79    C83     1.405   .     S
C80    C84     1.405   .     S
C80    H96     1.024   .     S
C81    C85     1.405   .     S
C81    H97     1.024   .     S
C82    H98     1.024   .     S
C82    C86     1.405   .     S
C83    H99     1.013   .     S
C84    H100    1.013   .     S
C85    H101    1.013   .     S
C86    H102    1.013   .     S
C103   C104    1.428   .     S
C103   C119    1.411   .     S
C104   C120    1.430   .     S
C104   C117    1.412   .     S
C105   C116    1.412   .     S
C105   H106    1.019   .     S
C105   C113    1.395   .     S
C107   C108    1.428   .     S
C107   C122    1.411   .     S
C108   C113    1.412   .     S
C108   C123    1.430   .     S
C109   H110    1.019   .     S
C109   C112    1.412   .     S
C109   C117    1.395   .     S
C111   C112    1.428   .     S
C111   C122    1.411   .     S
C112   C123    1.430   .     S
C113   H114    1.019   .     S
C115   C116    1.428   .     S
C115   C119    1.411   .     S
C116   C120    1.430   .     S
C117   H118    1.019   .     S
C119   H121    1.026   .     S
C120   C123    1.440   .     S
C122   H124    1.026   .     S
