data_TTF-COF
_audit_creation_date              2016-12-13
_audit_creation_method            'Materials Studio'
_symmetry_space_group_name_H-M    'P1'
_symmetry_Int_Tables_number       1
_symmetry_cell_setting            triclinic
loop_
_symmetry_equiv_pos_as_xyz
  x,y,z
_cell_length_a                    25.6027
_cell_length_b                    24.3641
_cell_length_c                    5.6000
_cell_angle_alpha                 90.0000
_cell_angle_beta                  90.0000
_cell_angle_gamma                 61.5878
loop_
_atom_site_label
_atom_site_type_symbol
_atom_site_fract_x
_atom_site_fract_y
_atom_site_fract_z
_atom_site_U_iso_or_equiv
_atom_site_adp_type
_atom_site_occupancy
C1     C     0.35697   0.47258   0.89008   0.00000  Uiso   1.00
N1     N     0.37122   0.52599   0.88852   0.00000  Uiso   1.00
C2     C     0.43503   0.51298   0.89033   0.00000  Uiso   1.00
C3     C     0.44918   0.56772   0.89240   0.00000  Uiso   1.00
C4     C     0.51420   0.55472   0.89554   0.00000  Uiso   1.00
H1     H     0.39445   0.42241   0.89178   0.00000  Uiso   1.00
H2     H     0.41164   0.61767   0.89179   0.00000  Uiso   1.00
H3     H     0.52475   0.59527   0.89747   0.00000  Uiso   1.00
C5     C     0.64305   0.52742   0.89535   0.00000  Uiso   1.00
N2     N     0.62877   0.47402   0.89640   0.00000  Uiso   1.00
C6     C     0.56496   0.48702   0.89555   0.00000  Uiso   1.00
C7     C     0.55082   0.43226   0.89366   0.00000  Uiso   1.00
C8     C     0.48579   0.44527   0.89073   0.00000  Uiso   1.00
H4     H     0.60561   0.57761   0.89480   0.00000  Uiso   1.00
H5     H     0.58835   0.38232   0.89400   0.00000  Uiso   1.00
H6     H     0.47524   0.40473   0.88879   0.00000  Uiso   1.00
C9     C     0.35697   0.17046   0.89534   0.00000  Uiso   1.00
N3     N     0.37122   0.10281   0.89691   0.00000  Uiso   1.00
C10    C     0.43503   0.05201   0.89509   0.00000  Uiso   1.00
C11    C     0.44918   0.98312   0.89302   0.00000  Uiso   1.00
C12    C     0.51420   0.93109   0.88988   0.00000  Uiso   1.00
H7     H     0.39445   0.18316   0.89365   0.00000  Uiso   1.00
H8     H     0.41164   0.97071   0.89363   0.00000  Uiso   1.00
H9     H     0.52475   0.88000   0.88796   0.00000  Uiso   1.00
C13    C     0.64305   0.82954   0.89008   0.00000  Uiso   1.00
N4     N     0.62877   0.89722   0.88903   0.00000  Uiso   1.00
C14    C     0.56496   0.94804   0.88987   0.00000  Uiso   1.00
C15    C     0.55082   0.01694   0.89176   0.00000  Uiso   1.00
C16    C     0.48579   0.06896   0.89470   0.00000  Uiso   1.00
H10    H     0.60561   0.81680   0.89063   0.00000  Uiso   1.00
H11    H     0.58835   0.02934   0.89143   0.00000  Uiso   1.00
H12    H     0.47524   0.12005   0.89664   0.00000  Uiso   1.00
S1     S     0.07122   0.40489   0.89375   0.00000  Uiso   1.00
C17    C     0.03007   0.48497   0.89271   0.00000  Uiso   1.00
C18    C     0.96996   0.51503   0.89272   0.00000  Uiso   1.00
S2     S     0.92881   0.47609   0.89375   0.00000  Uiso   1.00
S3     S     0.92881   0.59512   0.89168   0.00000  Uiso   1.00
S4     S     0.07122   0.52391   0.89168   0.00000  Uiso   1.00
C19    C     0.13793   0.40380   0.89319   0.00000  Uiso   1.00
C20    C     0.13793   0.45828   0.89224   0.00000  Uiso   1.00
C21    C     0.86209   0.54172   0.89319   0.00000  Uiso   1.00
C22    C     0.86209   0.59620   0.89224   0.00000  Uiso   1.00
C23    C     0.19602   0.34140   0.89377   0.00000  Uiso   1.00
C24    C     0.20903   0.29811   0.70796   0.00000  Uiso   1.00
C25    C     0.26194   0.24161   0.71076   0.00000  Uiso   1.00
C26    C     0.30239   0.22777   0.89905   0.00000  Uiso   1.00
C27    C     0.28943   0.27095   1.08465   0.00000  Uiso   1.00
C28    C     0.23654   0.32746   1.08203   0.00000  Uiso   1.00
H13    H     0.17834   0.30798   0.56101   0.00000  Uiso   1.00
H14    H     0.27142   0.20866   0.56632   0.00000  Uiso   1.00
H15    H     0.32029   0.26084   1.23114   0.00000  Uiso   1.00
H16    H     0.22714   0.36037   1.22666   0.00000  Uiso   1.00
C29    C     0.80401   0.53740   0.89377   0.00000  Uiso   1.00
C30    C     0.79100   0.50747   1.08085   0.00000  Uiso   1.00
C31    C     0.73808   0.50388   1.07910   0.00000  Uiso   1.00
C32    C     0.69764   0.53013   0.89059   0.00000  Uiso   1.00
C33    C     0.71059   0.56002   0.70372   0.00000  Uiso   1.00
C34    C     0.76349   0.56364   0.70530   0.00000  Uiso   1.00
H17    H     0.82169   0.48691   1.22799   0.00000  Uiso   1.00
H18    H     0.72861   0.48066   1.22452   0.00000  Uiso   1.00
H19    H     0.67974   0.58050   0.55705   0.00000  Uiso   1.00
H20    H     0.77289   0.58688   0.55969   0.00000  Uiso   1.00
C35    C     0.80401   0.65861   0.89166   0.00000  Uiso   1.00
C36    C     0.79100   0.70155   0.70458   0.00000  Uiso   1.00
C37    C     0.73808   0.75805   0.70633   0.00000  Uiso   1.00
C38    C     0.69764   0.77225   0.89484   0.00000  Uiso   1.00
C39    C     0.71059   0.72940   1.08171   0.00000  Uiso   1.00
C40    C     0.76349   0.67289   1.08013   0.00000  Uiso   1.00
H21    H     0.82169   0.69141   0.55744   0.00000  Uiso   1.00
H22    H     0.72861   0.79074   0.56091   0.00000  Uiso   1.00
H23    H     0.67974   0.73978   1.22838   0.00000  Uiso   1.00
H24    H     0.77289   0.64025   1.22574   0.00000  Uiso   1.00
C41    C     0.19602   0.46261   0.89166   0.00000  Uiso   1.00
C42    C     0.20903   0.49288   1.07747   0.00000  Uiso   1.00
C43    C     0.26194   0.49646   1.07467   0.00000  Uiso   1.00
C44    C     0.30239   0.46986   0.88637   0.00000  Uiso   1.00
C45    C     0.28943   0.43963   0.70078   0.00000  Uiso   1.00
C46    C     0.23654   0.43602   0.70340   0.00000  Uiso   1.00
H25    H     0.17834   0.51370   1.22441   0.00000  Uiso   1.00
H26    H     0.27142   0.51994   1.21911   0.00000  Uiso   1.00
H27    H     0.32029   0.41889   0.55429   0.00000  Uiso   1.00
H28    H     0.22714   0.41251   0.55877   0.00000  Uiso   1.00
loop_
_geom_bond_atom_site_label_1
_geom_bond_atom_site_label_2
_geom_bond_distance
_geom_bond_site_symmetry_2
_ccdc_geom_bond_type
C1     N1      1.509   .     S
C1     C44     1.430   .     S
C1     H1      1.140   .     S
N1     C2      1.509   .     S
C2     C3      1.539   .     S
C2     C8      1.540   .     S
C3     H2      1.136   .     S
C3     C4      1.540   .     S
C4     C6      1.539   .     S
C4     H3      1.141   .     S
C5     N2      1.510   .     S
C5     C32     1.430   .     S
C5     H4      1.140   .     S
N2     C6      1.509   .     S
C6     C7      1.540   .     S
C7     C8      1.540   .     S
C7     H5      1.136   .     S
C8     H6      1.141   .     S
C9     H7      1.140   .     S
C9     C26     1.430   .     S
C9     N3      1.509   .     S
N3     C10     1.509   .     S
C10    C16     1.540   .     S
C11    H8      1.136   .     S
C11    C12     1.540   .     S
C12    C14     1.539   .     S
C12    H9      1.141   .     S
C13    H10     1.140   .     S
C13    N4      1.510   .     S
C13    C38     1.430   .     S
N4     C14     1.509   .     S
C15    C16     1.540   .     S
C15    H11     1.136   .     S
C16    H12     1.141   .     S
S1     C19     1.696   .     S
S1     C17     1.721   .     S
C17    S4      1.721   .     S
C18    S2      1.721   .     S
C18    S3      1.721   .     S
S2     C21     1.696   .     S
S3     C22     1.696   .     S
S4     C20     1.696   .     S
C19    C23     1.540   .     S
C19    C20     1.327   .     S
C20    C41     1.540   .     S
C21    C29     1.540   .     S
C21    C22     1.327   .     S
C22    C35     1.540   .     S
C23    C28     1.403   .     S
C23    C24     1.404   .     S
C24    C25     1.398   .     S
C24    H13     1.083   .     S
C25    H14     1.083   .     S
C25    C26     1.402   .     S
C26    C27     1.402   .     S
C27    C28     1.398   .     S
C27    H15     1.083   .     S
C28    H16     1.083   .     S
C29    C30     1.404   .     S
C29    C34     1.403   .     S
C30    C31     1.398   .     S
C30    H17     1.083   .     S
C31    C32     1.402   .     S
C31    H18     1.083   .     S
C32    C33     1.402   .     S
C33    C34     1.398   .     S
C33    H19     1.083   .     S
C34    H20     1.083   .     S
C35    C40     1.403   .     S
C35    C36     1.404   .     S
C36    C37     1.398   .     S
C36    H21     1.083   .     S
C37    H22     1.083   .     S
C37    C38     1.402   .     S
C38    C39     1.402   .     S
C39    C40     1.398   .     S
C39    H23     1.083   .     S
C40    H24     1.083   .     S
C41    C42     1.404   .     S
C41    C46     1.403   .     S
C42    H25     1.083   .     S
C42    C43     1.398   .     S
C43    C44     1.402   .     S
C43    H26     1.083   .     S
C44    C45     1.402   .     S
C45    H27     1.083   .     S
C45    C46     1.398   .     S
C46    H28     1.083   .     S
