data_ZnP-COF
_audit_creation_date              2016-12-13
_audit_creation_method            'Materials Studio'
_symmetry_space_group_name_H-M    'P1'
_symmetry_Int_Tables_number       1
_symmetry_cell_setting            triclinic
loop_
_symmetry_equiv_pos_as_xyz
  x,y,z
_cell_length_a                    35.3514
_cell_length_b                    35.4280
_cell_length_c                    6.7872
_cell_angle_alpha                 90.0000
_cell_angle_beta                  90.0000
_cell_angle_gamma                 90.0000
loop_
_atom_site_label
_atom_site_type_symbol
_atom_site_fract_x
_atom_site_fract_y
_atom_site_fract_z
_atom_site_U_iso_or_equiv
_atom_site_adp_type
_atom_site_occupancy
C1     C     0.71202   0.74010   0.50000   0.00000  Uiso   1.00
C2     C     0.21202   0.24010   0.50000   0.00000  Uiso   1.00
C3     C     0.28798   0.25990   0.50000   0.00000  Uiso   1.00
C4     C     0.78798   0.75990   0.50000   0.00000  Uiso   1.00
C5     C     0.28798   0.74010   0.50000   0.00000  Uiso   1.00
C6     C     0.78798   0.24010   0.50000   0.00000  Uiso   1.00
C7     C     0.71202   0.25990   0.50000   0.00000  Uiso   1.00
C8     C     0.21202   0.75990   0.50000   0.00000  Uiso   1.00
O9     O     0.67730   0.72448   0.50000   0.00000  Uiso   1.00
O10    O     0.17729   0.22448   0.50000   0.00000  Uiso   1.00
O11    O     0.32271   0.27552   0.50000   0.00000  Uiso   1.00
O12    O     0.82271   0.77552   0.50000   0.00000  Uiso   1.00
O13    O     0.32271   0.72448   0.50000   0.00000  Uiso   1.00
O14    O     0.82271   0.22448   0.50000   0.00000  Uiso   1.00
O15    O     0.67730   0.27552   0.50000   0.00000  Uiso   1.00
O16    O     0.17729   0.77552   0.50000   0.00000  Uiso   1.00
C17    C     0.72119   0.77867   0.50000   0.00000  Uiso   1.00
C18    C     0.22119   0.27867   0.50000   0.00000  Uiso   1.00
C19    C     0.27881   0.22133   0.50000   0.00000  Uiso   1.00
C20    C     0.77881   0.72133   0.50000   0.00000  Uiso   1.00
C21    C     0.27881   0.77867   0.50000   0.00000  Uiso   1.00
C22    C     0.77881   0.27867   0.50000   0.00000  Uiso   1.00
C23    C     0.72119   0.22133   0.50000   0.00000  Uiso   1.00
C24    C     0.22119   0.72133   0.50000   0.00000  Uiso   1.00
C25    C     0.75982   0.78792   0.50000   0.00000  Uiso   1.00
C26    C     0.25982   0.28792   0.50000   0.00000  Uiso   1.00
C27    C     0.24018   0.21208   0.50000   0.00000  Uiso   1.00
C28    C     0.74018   0.71207   0.50000   0.00000  Uiso   1.00
C29    C     0.24018   0.78792   0.50000   0.00000  Uiso   1.00
C30    C     0.74018   0.28792   0.50000   0.00000  Uiso   1.00
C31    C     0.75982   0.21208   0.50000   0.00000  Uiso   1.00
C32    C     0.25982   0.71207   0.50000   0.00000  Uiso   1.00
H33    H     0.70080   0.79897   0.50000   0.00000  Uiso   1.00
H34    H     0.20080   0.29897   0.50000   0.00000  Uiso   1.00
H35    H     0.29920   0.20103   0.50000   0.00000  Uiso   1.00
H36    H     0.79920   0.70103   0.50000   0.00000  Uiso   1.00
H37    H     0.29920   0.79897   0.50000   0.00000  Uiso   1.00
H38    H     0.79920   0.29897   0.50000   0.00000  Uiso   1.00
H39    H     0.70080   0.20103   0.50000   0.00000  Uiso   1.00
H40    H     0.20080   0.70103   0.50000   0.00000  Uiso   1.00
C41    C     0.58179   0.46835   0.50000   0.00000  Uiso   1.00
C42    C     0.08179   0.96835   0.50000   0.00000  Uiso   1.00
C43    C     0.41821   0.53165   0.50000   0.00000  Uiso   1.00
C44    C     0.91821   0.03165   0.50000   0.00000  Uiso   1.00
C45    C     0.41821   0.46835   0.50000   0.00000  Uiso   1.00
C46    C     0.91821   0.96835   0.50000   0.00000  Uiso   1.00
C47    C     0.58179   0.53165   0.50000   0.00000  Uiso   1.00
C48    C     0.08179   0.03165   0.50000   0.00000  Uiso   1.00
C49    C     0.61933   0.48055   0.50000   0.00000  Uiso   1.00
C50    C     0.11933   0.98055   0.50000   0.00000  Uiso   1.00
C51    C     0.38067   0.51945   0.50000   0.00000  Uiso   1.00
C52    C     0.88067   0.01945   0.50000   0.00000  Uiso   1.00
C53    C     0.38067   0.48055   0.50000   0.00000  Uiso   1.00
C54    C     0.88067   0.98055   0.50000   0.00000  Uiso   1.00
C55    C     0.61933   0.51945   0.50000   0.00000  Uiso   1.00
C56    C     0.11933   0.01945   0.50000   0.00000  Uiso   1.00
H57    H     0.64301   0.46400   0.50000   0.00000  Uiso   1.00
H58    H     0.14301   0.96400   0.50000   0.00000  Uiso   1.00
H59    H     0.35699   0.53600   0.50000   0.00000  Uiso   1.00
H60    H     0.85699   0.03600   0.50000   0.00000  Uiso   1.00
H61    H     0.35699   0.46400   0.50000   0.00000  Uiso   1.00
H62    H     0.85699   0.96400   0.50000   0.00000  Uiso   1.00
H63    H     0.64301   0.53600   0.50000   0.00000  Uiso   1.00
H64    H     0.14301   0.03600   0.50000   0.00000  Uiso   1.00
N65    N     0.00000   0.94059   0.50000   0.00000  Uiso   1.00
N66    N     0.50000   0.44059   0.50000   0.00000  Uiso   1.00
N67    N     0.00000   0.05941   0.50000   0.00000  Uiso   1.00
N68    N     0.50000   0.55941   0.50000   0.00000  Uiso   1.00
C69    C     0.03151   0.91875   0.50000   0.00000  Uiso   1.00
C70    C     0.53151   0.41875   0.50000   0.00000  Uiso   1.00
C71    C     0.96849   0.08125   0.50000   0.00000  Uiso   1.00
C72    C     0.46849   0.58125   0.50000   0.00000  Uiso   1.00
C73    C     0.96849   0.91875   0.50000   0.00000  Uiso   1.00
C74    C     0.46849   0.41875   0.50000   0.00000  Uiso   1.00
C75    C     0.03151   0.08125   0.50000   0.00000  Uiso   1.00
C76    C     0.53151   0.58125   0.50000   0.00000  Uiso   1.00
C77    C     0.01945   0.88124   0.50000   0.00000  Uiso   1.00
C78    C     0.51945   0.38124   0.50000   0.00000  Uiso   1.00
C79    C     0.98055   0.11876   0.50000   0.00000  Uiso   1.00
C80    C     0.48055   0.61876   0.50000   0.00000  Uiso   1.00
C81    C     0.98055   0.88124   0.50000   0.00000  Uiso   1.00
C82    C     0.48055   0.38124   0.50000   0.00000  Uiso   1.00
C83    C     0.01945   0.11876   0.50000   0.00000  Uiso   1.00
C84    C     0.51945   0.61876   0.50000   0.00000  Uiso   1.00
H85    H     0.03606   0.85762   0.50000   0.00000  Uiso   1.00
H86    H     0.53606   0.35762   0.50000   0.00000  Uiso   1.00
H87    H     0.96394   0.14238   0.50000   0.00000  Uiso   1.00
H88    H     0.46394   0.64238   0.50000   0.00000  Uiso   1.00
H89    H     0.96394   0.85762   0.50000   0.00000  Uiso   1.00
H90    H     0.46394   0.35762   0.50000   0.00000  Uiso   1.00
H91    H     0.03606   0.14238   0.50000   0.00000  Uiso   1.00
H92    H     0.53606   0.64238   0.50000   0.00000  Uiso   1.00
C93    C     0.56985   0.43026   0.50000   0.00000  Uiso   1.00
C94    C     0.06985   0.93026   0.50000   0.00000  Uiso   1.00
C95    C     0.43015   0.56973   0.50000   0.00000  Uiso   1.00
C96    C     0.93015   0.06974   0.50000   0.00000  Uiso   1.00
C97    C     0.43015   0.43026   0.50000   0.00000  Uiso   1.00
C98    C     0.93015   0.93026   0.50000   0.00000  Uiso   1.00
C99    C     0.56985   0.56973   0.50000   0.00000  Uiso   1.00
C100   C     0.06985   0.06974   0.50000   0.00000  Uiso   1.00
C101   C     0.59807   0.40201   0.50000   0.00000  Uiso   1.00
C102   C     0.09807   0.90201   0.50000   0.00000  Uiso   1.00
C103   C     0.40193   0.59798   0.50000   0.00000  Uiso   1.00
C104   C     0.90193   0.09798   0.50000   0.00000  Uiso   1.00
C105   C     0.40193   0.40201   0.50000   0.00000  Uiso   1.00
C106   C     0.90193   0.90201   0.50000   0.00000  Uiso   1.00
C107   C     0.59807   0.59798   0.50000   0.00000  Uiso   1.00
C108   C     0.09807   0.09798   0.50000   0.00000  Uiso   1.00
C109   C     0.61233   0.38775   0.67955   0.00000  Uiso   1.00
C110   C     0.11233   0.88775   0.67955   0.00000  Uiso   1.00
C111   C     0.38767   0.61225   0.67955   0.00000  Uiso   1.00
C112   C     0.88767   0.11225   0.67955   0.00000  Uiso   1.00
C113   C     0.38767   0.38775   0.32045   0.00000  Uiso   1.00
C114   C     0.88767   0.88775   0.32045   0.00000  Uiso   1.00
C115   C     0.61233   0.61225   0.32045   0.00000  Uiso   1.00
C116   C     0.11233   0.11225   0.32045   0.00000  Uiso   1.00
C117   C     0.38767   0.61225   0.32045   0.00000  Uiso   1.00
C118   C     0.88767   0.11225   0.32045   0.00000  Uiso   1.00
C119   C     0.61233   0.38775   0.32045   0.00000  Uiso   1.00
C120   C     0.11233   0.88775   0.32045   0.00000  Uiso   1.00
C121   C     0.61233   0.61225   0.67955   0.00000  Uiso   1.00
C122   C     0.11233   0.11225   0.67955   0.00000  Uiso   1.00
C123   C     0.38767   0.38775   0.67955   0.00000  Uiso   1.00
C124   C     0.88767   0.88775   0.67955   0.00000  Uiso   1.00
H125   H     0.60230   0.39779   0.81094   0.00000  Uiso   1.00
H126   H     0.10230   0.89779   0.81094   0.00000  Uiso   1.00
H127   H     0.39770   0.60221   0.81094   0.00000  Uiso   1.00
H128   H     0.89770   0.10221   0.81094   0.00000  Uiso   1.00
H129   H     0.39770   0.39779   0.18906   0.00000  Uiso   1.00
H130   H     0.89770   0.89779   0.18906   0.00000  Uiso   1.00
H131   H     0.60230   0.60221   0.18906   0.00000  Uiso   1.00
H132   H     0.10230   0.10221   0.18906   0.00000  Uiso   1.00
H133   H     0.39770   0.60221   0.18906   0.00000  Uiso   1.00
H134   H     0.89770   0.10221   0.18906   0.00000  Uiso   1.00
H135   H     0.60230   0.39779   0.18906   0.00000  Uiso   1.00
H136   H     0.10230   0.89779   0.18906   0.00000  Uiso   1.00
H137   H     0.60230   0.60221   0.81094   0.00000  Uiso   1.00
H138   H     0.10230   0.10221   0.81094   0.00000  Uiso   1.00
H139   H     0.39770   0.39779   0.81094   0.00000  Uiso   1.00
H140   H     0.89770   0.89779   0.81094   0.00000  Uiso   1.00
C141   C     0.64045   0.35961   0.67953   0.00000  Uiso   1.00
C142   C     0.14045   0.85961   0.67953   0.00000  Uiso   1.00
C143   C     0.35955   0.64039   0.67953   0.00000  Uiso   1.00
C144   C     0.85956   0.14039   0.67953   0.00000  Uiso   1.00
C145   C     0.35955   0.35961   0.32048   0.00000  Uiso   1.00
C146   C     0.85956   0.85961   0.32048   0.00000  Uiso   1.00
C147   C     0.64045   0.64039   0.32048   0.00000  Uiso   1.00
C148   C     0.14045   0.14039   0.32048   0.00000  Uiso   1.00
C149   C     0.35955   0.64039   0.32048   0.00000  Uiso   1.00
C150   C     0.85956   0.14039   0.32048   0.00000  Uiso   1.00
C151   C     0.64045   0.35961   0.32048   0.00000  Uiso   1.00
C152   C     0.14045   0.85961   0.32048   0.00000  Uiso   1.00
C153   C     0.64045   0.64039   0.67953   0.00000  Uiso   1.00
C154   C     0.14045   0.14039   0.67953   0.00000  Uiso   1.00
C155   C     0.35955   0.35961   0.67953   0.00000  Uiso   1.00
C156   C     0.85956   0.85961   0.67953   0.00000  Uiso   1.00
H157   H     0.65048   0.34957   0.81091   0.00000  Uiso   1.00
H158   H     0.15048   0.84957   0.81091   0.00000  Uiso   1.00
H159   H     0.34952   0.65043   0.81091   0.00000  Uiso   1.00
H160   H     0.84952   0.15043   0.81091   0.00000  Uiso   1.00
H161   H     0.34952   0.34957   0.18909   0.00000  Uiso   1.00
H162   H     0.84952   0.84957   0.18909   0.00000  Uiso   1.00
H163   H     0.65048   0.65043   0.18909   0.00000  Uiso   1.00
H164   H     0.15048   0.15043   0.18909   0.00000  Uiso   1.00
H165   H     0.34952   0.65043   0.18909   0.00000  Uiso   1.00
H166   H     0.84952   0.15043   0.18909   0.00000  Uiso   1.00
H167   H     0.65048   0.34957   0.18909   0.00000  Uiso   1.00
H168   H     0.15048   0.84957   0.18909   0.00000  Uiso   1.00
H169   H     0.65048   0.65043   0.81091   0.00000  Uiso   1.00
H170   H     0.15048   0.15043   0.81091   0.00000  Uiso   1.00
H171   H     0.34952   0.34957   0.81091   0.00000  Uiso   1.00
H172   H     0.84952   0.84957   0.81091   0.00000  Uiso   1.00
C173   C     0.65470   0.34535   0.50000   0.00000  Uiso   1.00
C174   C     0.15470   0.84535   0.50000   0.00000  Uiso   1.00
C175   C     0.34530   0.65465   0.50000   0.00000  Uiso   1.00
C176   C     0.84530   0.15465   0.50000   0.00000  Uiso   1.00
C177   C     0.34530   0.34535   0.50000   0.00000  Uiso   1.00
C178   C     0.84530   0.84535   0.50000   0.00000  Uiso   1.00
C179   C     0.65470   0.65465   0.50000   0.00000  Uiso   1.00
C180   C     0.15470   0.15465   0.50000   0.00000  Uiso   1.00
O181   O     0.77539   0.82261   0.50000   0.00000  Uiso   1.00
O182   O     0.27539   0.32262   0.50000   0.00000  Uiso   1.00
O183   O     0.22461   0.17738   0.50000   0.00000  Uiso   1.00
O184   O     0.72461   0.67738   0.50000   0.00000  Uiso   1.00
O185   O     0.22461   0.82261   0.50000   0.00000  Uiso   1.00
O186   O     0.72461   0.32262   0.50000   0.00000  Uiso   1.00
O187   O     0.77539   0.17738   0.50000   0.00000  Uiso   1.00
O188   O     0.27539   0.67738   0.50000   0.00000  Uiso   1.00
B189   B     0.81559   0.81562   0.50000   0.00000  Uiso   1.00
B190   B     0.31559   0.31562   0.50000   0.00000  Uiso   1.00
B191   B     0.18441   0.18438   0.50000   0.00000  Uiso   1.00
B192   B     0.68441   0.68438   0.50000   0.00000  Uiso   1.00
B193   B     0.18441   0.81562   0.50000   0.00000  Uiso   1.00
B194   B     0.68441   0.31562   0.50000   0.00000  Uiso   1.00
B195   B     0.81559   0.18438   0.50000   0.00000  Uiso   1.00
B196   B     0.31559   0.68438   0.50000   0.00000  Uiso   1.00
N197   N     0.56050   0.50000   0.50000   0.00000  Uiso   1.00
N198   N     0.06050   0.00000   0.50000   0.00000  Uiso   1.00
N199   N     0.43950   0.50000   0.50000   0.00000  Uiso   1.00
N200   N     0.93950   0.00000   0.50000   0.00000  Uiso   1.00
H201   H     0.53306   0.50000   0.50000   0.00000  Uiso   1.00
H202   H     0.03306   0.00000   0.50000   0.00000  Uiso   1.00
H203   H     0.46694   0.50000   0.50000   0.00000  Uiso   1.00
H204   H     0.96695   0.00000   0.50000   0.00000  Uiso   1.00
loop_
_geom_bond_atom_site_label_1
_geom_bond_atom_site_label_2
_geom_bond_distance
_geom_bond_site_symmetry_2
_ccdc_geom_bond_type
C1     C28     1.406   .     S
C1     O9      1.347   .     S
C1     C17     1.405   .     S
C2     C27     1.406   .     S
C2     O10     1.347   .     S
C2     C18     1.405   .     S
C3     C26     1.406   .     S
C3     O11     1.347   .     S
C3     C19     1.405   .     S
C4     C25     1.406   .     S
C4     O12     1.347   .     S
C4     C20     1.405   .     S
C5     C32     1.406   .     S
C5     O13     1.347   .     S
C5     C21     1.405   .     S
C6     C31     1.406   .     S
C6     O14     1.347   .     S
C6     C22     1.405   .     S
C7     C30     1.406   .     S
C7     O15     1.347   .     S
C7     C23     1.405   .     S
C8     C29     1.406   .     S
C8     O16     1.347   .     S
C8     C24     1.405   .     S
O9     B192    1.443   .     S
O10    B191    1.443   .     S
O11    B190    1.443   .     S
O12    B189    1.443   .     S
O13    B196    1.443   .     S
O14    B195    1.443   .     S
O15    B194    1.443   .     S
O16    B193    1.443   .     S
C17    H33     1.018   .     S
C17    C25     1.405   .     S
C18    H34     1.018   .     S
C18    C26     1.405   .     S
C19    H35     1.018   .     S
C19    C27     1.405   .     S
C20    H36     1.018   .     S
C20    C28     1.405   .     S
C21    H37     1.018   .     S
C21    C29     1.405   .     S
C22    H38     1.018   .     S
C22    C30     1.405   .     S
C23    H39     1.018   .     S
C23    C31     1.405   .     S
C24    H40     1.018   .     S
C24    C32     1.405   .     S
C25    O181    1.347   .     S
C26    O182    1.347   .     S
C27    O183    1.347   .     S
C28    O184    1.347   .     S
C29    O185    1.347   .     S
C30    O186    1.347   .     S
C31    O187    1.347   .     S
C32    O188    1.347   .     S
C41    C49     1.396   .     S
C41    N197    1.351   .     S
C41    C93     1.414   .     S
C42    C50     1.396   .     S
C42    C94     1.414   .     S
C43    N199    1.351   .     S
C43    C51     1.396   .     S
C43    C95     1.414   .     S
C44    N200    1.351   .     S
C44    C52     1.396   .     S
C44    C96     1.414   .     S
C45    C53     1.396   .     S
C45    N199    1.351   .     S
C45    C97     1.414   .     S
C46    C54     1.396   .     S
C46    C98     1.414   .     S
C47    N197    1.351   .     S
C47    C55     1.396   .     S
C47    C99     1.414   .     S
C48    N198    1.351   .     S
C48    C56     1.396   .     S
C48    C100    1.414   .     S
C49    H57     1.022   .     S
C49    C55     1.378   .     S
C50    H58     1.022   .     S
C51    H59     1.022   .     S
C51    C53     1.378   .     S
C52    H60     1.022   .     S
C53    H61     1.022   .     S
C54    H62     1.022   .     S
C55    H63     1.022   .     S
C56    H64     1.022   .     S
N65    C69     1.356   .     S
N66    C74     1.356   .     S
N66    C70     1.356   .     S
N67    C75     1.356   .     S
N68    C72     1.356   .     S
N68    C76     1.356   .     S
C69    C94     1.415   .     S
C69    C77     1.396   .     S
C70    C93     1.415   .     S
C70    C78     1.396   .     S
C71    C96     1.415   .     S
C71    C79     1.396   .     S
C72    C95     1.415   .     S
C72    C80     1.396   .     S
C73    C98     1.415   .     S
C73    C81     1.396   .     S
C74    C97     1.415   .     S
C74    C82     1.396   .     S
C75    C100    1.415   .     S
C75    C83     1.396   .     S
C76    C99     1.415   .     S
C76    C84     1.396   .     S
C77    H85     1.022   .     S
C78    H86     1.022   .     S
C78    C82     1.375   .     S
C79    H87     1.022   .     S
C80    H88     1.022   .     S
C80    C84     1.375   .     S
C81    H89     1.022   .     S
C82    H90     1.022   .     S
C83    H91     1.022   .     S
C84    H92     1.022   .     S
C93    C101    1.413   .     S
C94    C102    1.413   .     S
C95    C103    1.413   .     S
C96    C104    1.413   .     S
C97    C105    1.413   .     S
C98    C106    1.413   .     S
C99    C107    1.413   .     S
C100   C108    1.413   .     S
C101   C119    1.412   .     S
C101   C109    1.412   .     S
C102   C120    1.412   .     S
C102   C110    1.412   .     S
C103   C117    1.412   .     S
C103   C111    1.412   .     S
C104   C118    1.412   .     S
C104   C112    1.412   .     S
C105   C113    1.412   .     S
C105   C123    1.412   .     S
C106   C114    1.412   .     S
C106   C124    1.412   .     S
C107   C115    1.412   .     S
C107   C121    1.412   .     S
C108   C116    1.412   .     S
C108   C122    1.412   .     S
C109   C141    1.408   .     S
C109   H125    1.024   .     S
C110   C142    1.408   .     S
C110   H126    1.024   .     S
C111   C143    1.408   .     S
C111   H127    1.024   .     S
C112   C144    1.408   .     S
C112   H128    1.024   .     S
C113   C145    1.408   .     S
C113   H129    1.024   .     S
C114   C146    1.408   .     S
C114   H130    1.024   .     S
C115   C147    1.408   .     S
C115   H131    1.024   .     S
C116   C148    1.408   .     S
C116   H132    1.024   .     S
C117   C149    1.408   .     S
C117   H133    1.024   .     S
C118   C150    1.408   .     S
C118   H134    1.024   .     S
C119   C151    1.408   .     S
C119   H135    1.024   .     S
C120   C152    1.408   .     S
C120   H136    1.024   .     S
C121   C153    1.408   .     S
C121   H137    1.024   .     S
C122   C154    1.408   .     S
C122   H138    1.024   .     S
C123   C155    1.408   .     S
C123   H139    1.024   .     S
C124   C156    1.408   .     S
C124   H140    1.024   .     S
C141   C173    1.412   .     S
C141   H157    1.024   .     S
C142   C174    1.412   .     S
C142   H158    1.024   .     S
C143   C175    1.412   .     S
C143   H159    1.024   .     S
C144   C176    1.412   .     S
C144   H160    1.024   .     S
C145   C177    1.412   .     S
C145   H161    1.024   .     S
C146   C178    1.412   .     S
C146   H162    1.024   .     S
C147   C179    1.412   .     S
C147   H163    1.024   .     S
C148   C180    1.412   .     S
C148   H164    1.024   .     S
C149   C175    1.412   .     S
C149   H165    1.024   .     S
C150   C176    1.412   .     S
C150   H166    1.024   .     S
C151   C173    1.412   .     S
C151   H167    1.024   .     S
C152   C174    1.412   .     S
C152   H168    1.024   .     S
C153   C179    1.412   .     S
C153   H169    1.024   .     S
C154   C180    1.412   .     S
C154   H170    1.024   .     S
C155   C177    1.412   .     S
C155   H171    1.024   .     S
C156   C178    1.412   .     S
C156   H172    1.024   .     S
C173   B194    1.488   .     S
C174   B193    1.488   .     S
C175   B196    1.488   .     S
C176   B195    1.488   .     S
C177   B190    1.488   .     S
C178   B189    1.488   .     S
C179   B192    1.488   .     S
C180   B191    1.488   .     S
O181   B189    1.443   .     S
O182   B190    1.443   .     S
O183   B191    1.443   .     S
O184   B192    1.443   .     S
O185   B193    1.443   .     S
O186   B194    1.443   .     S
O187   B195    1.443   .     S
O188   B196    1.443   .     S
N197   H201    0.970   .     S
N198   H202    0.970   .     S
N199   H203    0.970   .     S
N200   H204    0.970   .     S
