data_ZnPc-DPB
_audit_creation_date              2016-12-13
_audit_creation_method            'Materials Studio'
_symmetry_space_group_name_H-M    'P1'
_symmetry_Int_Tables_number       1
_symmetry_cell_setting            triclinic
loop_
_symmetry_equiv_pos_as_xyz
  x,y,z
_cell_length_a                    32.1830
_cell_length_b                    32.1830
_cell_length_c                    3.3560
_cell_angle_alpha                 90.0000
_cell_angle_beta                  90.0000
_cell_angle_gamma                 90.0000
loop_
_atom_site_label
_atom_site_type_symbol
_atom_site_fract_x
_atom_site_fract_y
_atom_site_fract_z
_atom_site_U_iso_or_equiv
_atom_site_adp_type
_atom_site_occupancy
Zn1    Zn    0.50000   0.50000   0.50000   0.00000  Uiso   1.00
C1     C     0.02049   0.50000   0.50000   0.00000  Uiso   1.00
C2     C     0.05770   0.50000   0.50000   0.00000  Uiso   1.00
C3     C     0.10207   0.50000   0.50000   0.00000  Uiso   1.00
C4     C     0.18853   0.50000   0.50000   0.00000  Uiso   1.00
B1     B     0.23665   0.50000   0.50000   0.00000  Uiso   1.00
N1     N     0.44032   0.50000   0.50000   0.00000  Uiso   1.00
C5     C     0.97951   0.50000   0.50000   0.00000  Uiso   1.00
C6     C     0.94230   0.50000   0.50000   0.00000  Uiso   1.00
C7     C     0.89793   0.50000   0.50000   0.00000  Uiso   1.00
C8     C     0.81147   0.50000   0.50000   0.00000  Uiso   1.00
B2     B     0.76335   0.50000   0.50000   0.00000  Uiso   1.00
N2     N     0.55968   0.50000   0.50000   0.00000  Uiso   1.00
C9     C     0.50000   0.02049   0.50000   0.00000  Uiso   1.00
C10    C     0.50000   0.05770   0.50000   0.00000  Uiso   1.00
C11    C     0.50000   0.10207   0.50000   0.00000  Uiso   1.00
C12    C     0.50000   0.18853   0.50000   0.00000  Uiso   1.00
B3     B     0.50000   0.23665   0.50000   0.00000  Uiso   1.00
N3     N     0.50000   0.44032   0.50000   0.00000  Uiso   1.00
C13    C     0.50000   0.97951   0.50000   0.00000  Uiso   1.00
C14    C     0.50000   0.94230   0.50000   0.00000  Uiso   1.00
C15    C     0.50000   0.89793   0.50000   0.00000  Uiso   1.00
C16    C     0.50000   0.81147   0.50000   0.00000  Uiso   1.00
B4     B     0.50000   0.76335   0.50000   0.00000  Uiso   1.00
N4     N     0.50000   0.55968   0.50000   0.00000  Uiso   1.00
C17    C     0.12375   0.46474   0.50000   0.00000  Uiso   1.00
C18    C     0.16681   0.46474   0.50000   0.00000  Uiso   1.00
C19    C     0.30064   0.48055   0.50000   0.00000  Uiso   1.00
C20    C     0.33741   0.45786   0.50000   0.00000  Uiso   1.00
C21    C     0.37382   0.48055   0.50000   0.00000  Uiso   1.00
C22    C     0.41448   0.46904   0.50000   0.00000  Uiso   1.00
O1     O     0.26132   0.46414   0.50000   0.00000  Uiso   1.00
H1     H     0.66363   0.42245   0.50000   0.00000  Uiso   1.00
H2     H     0.89311   0.56641   0.50000   0.00000  Uiso   1.00
H3     H     0.81548   0.56594   0.50000   0.00000  Uiso   1.00
C23    C     0.87625   0.53526   0.50000   0.00000  Uiso   1.00
C24    C     0.83319   0.53526   0.50000   0.00000  Uiso   1.00
C25    C     0.69936   0.51945   0.50000   0.00000  Uiso   1.00
C26    C     0.66259   0.54214   0.50000   0.00000  Uiso   1.00
C27    C     0.62618   0.51945   0.50000   0.00000  Uiso   1.00
C28    C     0.58552   0.53096   0.50000   0.00000  Uiso   1.00
O2     O     0.73869   0.53586   0.50000   0.00000  Uiso   1.00
H4     H     0.33637   0.57755   0.50000   0.00000  Uiso   1.00
H5     H     0.10689   0.43359   0.50000   0.00000  Uiso   1.00
H6     H     0.18452   0.43406   0.50000   0.00000  Uiso   1.00
C29    C     0.53526   0.12375   0.50000   0.00000  Uiso   1.00
C30    C     0.53526   0.16681   0.50000   0.00000  Uiso   1.00
C31    C     0.51945   0.30064   0.50000   0.00000  Uiso   1.00
C32    C     0.54214   0.33741   0.50000   0.00000  Uiso   1.00
C33    C     0.51945   0.37382   0.50000   0.00000  Uiso   1.00
C34    C     0.53096   0.41448   0.50000   0.00000  Uiso   1.00
O3     O     0.53586   0.26132   0.50000   0.00000  Uiso   1.00
H7     H     0.57755   0.66363   0.50000   0.00000  Uiso   1.00
H8     H     0.43359   0.89311   0.50000   0.00000  Uiso   1.00
H9     H     0.43406   0.81548   0.50000   0.00000  Uiso   1.00
C35    C     0.46474   0.87625   0.50000   0.00000  Uiso   1.00
C36    C     0.46474   0.83319   0.50000   0.00000  Uiso   1.00
C37    C     0.48055   0.69936   0.50000   0.00000  Uiso   1.00
C38    C     0.45786   0.66259   0.50000   0.00000  Uiso   1.00
C39    C     0.48055   0.62618   0.50000   0.00000  Uiso   1.00
C40    C     0.46904   0.58552   0.50000   0.00000  Uiso   1.00
O4     O     0.46414   0.73869   0.50000   0.00000  Uiso   1.00
H10    H     0.42245   0.33637   0.50000   0.00000  Uiso   1.00
H11    H     0.56641   0.10689   0.50000   0.00000  Uiso   1.00
H12    H     0.56594   0.18452   0.50000   0.00000  Uiso   1.00
C41    C     0.87625   0.46474   0.50000   0.00000  Uiso   1.00
C42    C     0.83319   0.46474   0.50000   0.00000  Uiso   1.00
C43    C     0.69936   0.48055   0.50000   0.00000  Uiso   1.00
C44    C     0.66259   0.45786   0.50000   0.00000  Uiso   1.00
C45    C     0.62618   0.48055   0.50000   0.00000  Uiso   1.00
C46    C     0.58552   0.46904   0.50000   0.00000  Uiso   1.00
O5     O     0.73869   0.46414   0.50000   0.00000  Uiso   1.00
H13    H     0.33637   0.42245   0.50000   0.00000  Uiso   1.00
H14    H     0.10689   0.56641   0.50000   0.00000  Uiso   1.00
H15    H     0.18452   0.56594   0.50000   0.00000  Uiso   1.00
C47    C     0.12375   0.53526   0.50000   0.00000  Uiso   1.00
C48    C     0.16681   0.53526   0.50000   0.00000  Uiso   1.00
C49    C     0.30064   0.51945   0.50000   0.00000  Uiso   1.00
C50    C     0.33741   0.54214   0.50000   0.00000  Uiso   1.00
C51    C     0.37382   0.51945   0.50000   0.00000  Uiso   1.00
C52    C     0.41448   0.53096   0.50000   0.00000  Uiso   1.00
O6     O     0.26132   0.53586   0.50000   0.00000  Uiso   1.00
H16    H     0.66363   0.57755   0.50000   0.00000  Uiso   1.00
H17    H     0.89311   0.43359   0.50000   0.00000  Uiso   1.00
H18    H     0.81548   0.43406   0.50000   0.00000  Uiso   1.00
C53    C     0.46474   0.12375   0.50000   0.00000  Uiso   1.00
C54    C     0.46474   0.16681   0.50000   0.00000  Uiso   1.00
C55    C     0.48055   0.30064   0.50000   0.00000  Uiso   1.00
C56    C     0.45786   0.33741   0.50000   0.00000  Uiso   1.00
C57    C     0.48055   0.37382   0.50000   0.00000  Uiso   1.00
C58    C     0.46904   0.41448   0.50000   0.00000  Uiso   1.00
O7     O     0.46414   0.26132   0.50000   0.00000  Uiso   1.00
H19    H     0.42245   0.66363   0.50000   0.00000  Uiso   1.00
H20    H     0.56641   0.89311   0.50000   0.00000  Uiso   1.00
H21    H     0.56594   0.81548   0.50000   0.00000  Uiso   1.00
C59    C     0.53526   0.87625   0.50000   0.00000  Uiso   1.00
C60    C     0.53526   0.83319   0.50000   0.00000  Uiso   1.00
C61    C     0.51945   0.69936   0.50000   0.00000  Uiso   1.00
C62    C     0.54214   0.66259   0.50000   0.00000  Uiso   1.00
C63    C     0.51945   0.62618   0.50000   0.00000  Uiso   1.00
C64    C     0.53096   0.58552   0.50000   0.00000  Uiso   1.00
O8     O     0.53586   0.73869   0.50000   0.00000  Uiso   1.00
H22    H     0.57755   0.33637   0.50000   0.00000  Uiso   1.00
H23    H     0.43359   0.10689   0.50000   0.00000  Uiso   1.00
H24    H     0.43406   0.18452   0.50000   0.00000  Uiso   1.00
N5     N     0.42805   0.42805   0.50000   0.00000  Uiso   1.00
N6     N     0.57195   0.57195   0.50000   0.00000  Uiso   1.00
N7     N     0.57195   0.42805   0.50000   0.00000  Uiso   1.00
N8     N     0.42805   0.57195   0.50000   0.00000  Uiso   1.00
loop_
_geom_bond_atom_site_label_1
_geom_bond_atom_site_label_2
_geom_bond_distance
_geom_bond_site_symmetry_2
_ccdc_geom_bond_type
Zn1    N1      1.921   .     S
Zn1    N3      1.921   .     S
Zn1    N2      1.921   .     S
Zn1    N4      1.921   .     S
C1     C2      1.197   .     S
C2     C3      1.428   .     S
C3     C17     1.332   .     S
C3     C47     1.332   .     S
C4     B1      1.549   .     S
C4     C18     1.333   .     S
C4     C48     1.333   .     S
B1     O1      1.401   .     S
B1     O6      1.401   .     S
N1     C22     1.298   .     S
N1     C52     1.298   .     S
C5     C6      1.197   .     S
C6     C7      1.428   .     S
C7     C41     1.332   .     S
C7     C23     1.332   .     S
C8     C42     1.333   .     S
C8     B2      1.549   .     S
C8     C24     1.333   .     S
B2     O5      1.401   .     S
B2     O2      1.401   .     S
N2     C46     1.298   .     S
N2     C28     1.298   .     S
C9     C10     1.197   .     S
C10    C11     1.428   .     S
C11    C53     1.332   .     S
C11    C29     1.332   .     S
C12    B3      1.549   .     S
C12    C54     1.333   .     S
C12    C30     1.333   .     S
B3     O7      1.401   .     S
B3     O3      1.401   .     S
N3     C58     1.298   .     S
N3     C34     1.298   .     S
C13    C14     1.197   .     S
C14    C15     1.428   .     S
C15    C35     1.332   .     S
C15    C59     1.332   .     S
C16    C36     1.333   .     S
C16    C60     1.333   .     S
C16    B4      1.549   .     S
B4     O4      1.401   .     S
B4     O8      1.401   .     S
N4     C40     1.298   .     S
N4     C64     1.298   .     S
C17    C18     1.386   .     S
C17    H5      1.140   .     S
C18    H6      1.140   .     S
C19    C20     1.390   .     S
C19    O1      1.371   .     S
C19    C49     1.252   .     S
C20    C21     1.381   .     S
C20    H13     1.140   .     S
C21    C22     1.360   .     S
C21    C51     1.252   .     S
C22    N5      1.390   .     S
H1     C44     1.140   .     S
H2     C23     1.140   .     S
H3     C24     1.140   .     S
C23    C24     1.386   .     S
C25    O2      1.371   .     S
C25    C26     1.390   .     S
C25    C43     1.252   .     S
C26    C27     1.381   .     S
C26    H16     1.140   .     S
C27    C28     1.360   .     S
C27    C45     1.252   .     S
C28    N6      1.390   .     S
H4     C50     1.140   .     S
C29    C30     1.386   .     S
C29    H11     1.140   .     S
C30    H12     1.140   .     S
C31    C32     1.390   .     S
C31    O3      1.371   .     S
C31    C55     1.252   .     S
C32    H22     1.140   .     S
C32    C33     1.381   .     S
C33    C34     1.360   .     S
C33    C57     1.252   .     S
C34    N7      1.390   .     S
H7     C62     1.140   .     S
H8     C35     1.140   .     S
H9     C36     1.140   .     S
C35    C36     1.386   .     S
C37    O4      1.371   .     S
C37    C61     1.252   .     S
C37    C38     1.390   .     S
C38    C39     1.381   .     S
C38    H19     1.140   .     S
C39    C63     1.252   .     S
C39    C40     1.360   .     S
C40    N8      1.390   .     S
H10    C56     1.140   .     S
C41    H17     1.140   .     S
C41    C42     1.386   .     S
C42    H18     1.140   .     S
C43    O5      1.371   .     S
C43    C44     1.390   .     S
C44    C45     1.381   .     S
C45    C46     1.360   .     S
C46    N7      1.390   .     S
H14    C47     1.140   .     S
H15    C48     1.140   .     S
C47    C48     1.386   .     S
C49    C50     1.390   .     S
C49    O6      1.371   .     S
C50    C51     1.381   .     S
C51    C52     1.360   .     S
C52    N8      1.390   .     S
C53    C54     1.386   .     S
C53    H23     1.140   .     S
C54    H24     1.140   .     S
C55    C56     1.390   .     S
C55    O7      1.371   .     S
C56    C57     1.381   .     S
C57    C58     1.360   .     S
C58    N5      1.390   .     S
H20    C59     1.140   .     S
H21    C60     1.140   .     S
C59    C60     1.386   .     S
C61    O8      1.371   .     S
C61    C62     1.390   .     S
C62    C63     1.381   .     S
C63    C64     1.360   .     S
C64    N6      1.390   .     S
