data_ZnPc-NDI
_audit_creation_date              2016-12-13
_audit_creation_method            'Materials Studio'
_symmetry_space_group_name_H-M    'P1'
_symmetry_Int_Tables_number       1
_symmetry_cell_setting            triclinic
loop_
_symmetry_equiv_pos_as_xyz
  x,y,z
_cell_length_a                    35.7010
_cell_length_b                    35.7010
_cell_length_c                    3.3610
_cell_angle_alpha                 90.0000
_cell_angle_beta                  90.0000
_cell_angle_gamma                 90.0000
loop_
_atom_site_label
_atom_site_type_symbol
_atom_site_fract_x
_atom_site_fract_y
_atom_site_fract_z
_atom_site_U_iso_or_equiv
_atom_site_adp_type
_atom_site_occupancy
Zn1    Zn    0.50000   0.50000   0.50000   0.00000  Uiso   1.00
C1     C     0.01988   0.50000   0.50000   0.00000  Uiso   1.00
C2     C     0.14089   0.50000   0.50000   0.00000  Uiso   1.00
C3     C     0.22166   0.50000   0.50000   0.00000  Uiso   1.00
B1     B     0.26392   0.50000   0.50000   0.00000  Uiso   1.00
N1     N     0.09928   0.50000   0.50000   0.00000  Uiso   1.00
N2     N     0.44716   0.50000   0.50000   0.00000  Uiso   1.00
C4     C     0.98012   0.50000   0.50000   0.00000  Uiso   1.00
C5     C     0.85911   0.50000   0.50000   0.00000  Uiso   1.00
C6     C     0.77834   0.50000   0.50000   0.00000  Uiso   1.00
B2     B     0.73608   0.50000   0.50000   0.00000  Uiso   1.00
N3     N     0.90072   0.50000   0.50000   0.00000  Uiso   1.00
N4     N     0.55284   0.50000   0.50000   0.00000  Uiso   1.00
C7     C     0.50000   0.01988   0.50000   0.00000  Uiso   1.00
C8     C     0.50000   0.14089   0.50000   0.00000  Uiso   1.00
C9     C     0.50000   0.22166   0.50000   0.00000  Uiso   1.00
B3     B     0.50000   0.26392   0.50000   0.00000  Uiso   1.00
N5     N     0.50000   0.09928   0.50000   0.00000  Uiso   1.00
N6     N     0.50000   0.44716   0.50000   0.00000  Uiso   1.00
C10    C     0.50000   0.98012   0.50000   0.00000  Uiso   1.00
C11    C     0.50000   0.85911   0.50000   0.00000  Uiso   1.00
C12    C     0.50000   0.77834   0.50000   0.00000  Uiso   1.00
B4     B     0.50000   0.73608   0.50000   0.00000  Uiso   1.00
N7     N     0.50000   0.90072   0.50000   0.00000  Uiso   1.00
N8     N     0.50000   0.55284   0.50000   0.00000  Uiso   1.00
C13    C     0.01988   0.43310   0.50000   0.00000  Uiso   1.00
C14    C     0.03970   0.46655   0.50000   0.00000  Uiso   1.00
C15    C     0.07919   0.46655   0.50000   0.00000  Uiso   1.00
C16    C     0.16206   0.46655   0.50000   0.00000  Uiso   1.00
C17    C     0.20134   0.46655   0.50000   0.00000  Uiso   1.00
C18    C     0.31942   0.48086   0.50000   0.00000  Uiso   1.00
C19    C     0.35294   0.46024   0.50000   0.00000  Uiso   1.00
C20    C     0.38632   0.48097   0.50000   0.00000  Uiso   1.00
C21    C     0.42349   0.47026   0.50000   0.00000  Uiso   1.00
O1     O     0.09583   0.43571   0.50000   0.00000  Uiso   1.00
O2     O     0.28529   0.46750   0.50000   0.00000  Uiso   1.00
H1     H     0.03510   0.40673   0.50000   0.00000  Uiso   1.00
H2     H     0.14792   0.43959   0.50000   0.00000  Uiso   1.00
H3     H     0.21656   0.44018   0.50000   0.00000  Uiso   1.00
H4     H     0.35209   0.42980   0.50000   0.00000  Uiso   1.00
C22    C     0.98012   0.56690   0.50000   0.00000  Uiso   1.00
C23    C     0.96030   0.53345   0.50000   0.00000  Uiso   1.00
C24    C     0.92081   0.53345   0.50000   0.00000  Uiso   1.00
C25    C     0.83794   0.53345   0.50000   0.00000  Uiso   1.00
C26    C     0.79867   0.53345   0.50000   0.00000  Uiso   1.00
C27    C     0.68058   0.51914   0.50000   0.00000  Uiso   1.00
C28    C     0.64706   0.53976   0.50000   0.00000  Uiso   1.00
C29    C     0.61368   0.51903   0.50000   0.00000  Uiso   1.00
C30    C     0.57651   0.52974   0.50000   0.00000  Uiso   1.00
O3     O     0.90417   0.56429   0.50000   0.00000  Uiso   1.00
O4     O     0.71471   0.53250   0.50000   0.00000  Uiso   1.00
H5     H     0.96490   0.59327   0.50000   0.00000  Uiso   1.00
H6     H     0.85208   0.56041   0.50000   0.00000  Uiso   1.00
H7     H     0.78344   0.55982   0.50000   0.00000  Uiso   1.00
H8     H     0.64791   0.57020   0.50000   0.00000  Uiso   1.00
C31    C     0.56690   0.01988   0.50000   0.00000  Uiso   1.00
C32    C     0.53345   0.03970   0.50000   0.00000  Uiso   1.00
C33    C     0.53345   0.07919   0.50000   0.00000  Uiso   1.00
C34    C     0.53345   0.16206   0.50000   0.00000  Uiso   1.00
C35    C     0.53345   0.20134   0.50000   0.00000  Uiso   1.00
C36    C     0.51914   0.31942   0.50000   0.00000  Uiso   1.00
C37    C     0.53976   0.35294   0.50000   0.00000  Uiso   1.00
C38    C     0.51903   0.38632   0.50000   0.00000  Uiso   1.00
C39    C     0.52974   0.42349   0.50000   0.00000  Uiso   1.00
O5     O     0.56429   0.09583   0.50000   0.00000  Uiso   1.00
O6     O     0.53250   0.28529   0.50000   0.00000  Uiso   1.00
H9     H     0.59327   0.03510   0.50000   0.00000  Uiso   1.00
H10    H     0.56041   0.14792   0.50000   0.00000  Uiso   1.00
H11    H     0.55982   0.21656   0.50000   0.00000  Uiso   1.00
H12    H     0.57020   0.35209   0.50000   0.00000  Uiso   1.00
C40    C     0.43310   0.98012   0.50000   0.00000  Uiso   1.00
C41    C     0.46655   0.96030   0.50000   0.00000  Uiso   1.00
C42    C     0.46655   0.92081   0.50000   0.00000  Uiso   1.00
C43    C     0.46655   0.83794   0.50000   0.00000  Uiso   1.00
C44    C     0.46655   0.79867   0.50000   0.00000  Uiso   1.00
C45    C     0.48086   0.68058   0.50000   0.00000  Uiso   1.00
C46    C     0.46024   0.64706   0.50000   0.00000  Uiso   1.00
C47    C     0.48097   0.61368   0.50000   0.00000  Uiso   1.00
C48    C     0.47026   0.57651   0.50000   0.00000  Uiso   1.00
O7     O     0.43571   0.90417   0.50000   0.00000  Uiso   1.00
O8     O     0.46750   0.71471   0.50000   0.00000  Uiso   1.00
H13    H     0.40673   0.96490   0.50000   0.00000  Uiso   1.00
H14    H     0.43959   0.85208   0.50000   0.00000  Uiso   1.00
H15    H     0.44018   0.78344   0.50000   0.00000  Uiso   1.00
H16    H     0.42980   0.64791   0.50000   0.00000  Uiso   1.00
C49    C     0.98012   0.43310   0.50000   0.00000  Uiso   1.00
C50    C     0.96030   0.46655   0.50000   0.00000  Uiso   1.00
C51    C     0.92081   0.46655   0.50000   0.00000  Uiso   1.00
C52    C     0.83794   0.46655   0.50000   0.00000  Uiso   1.00
C53    C     0.79867   0.46655   0.50000   0.00000  Uiso   1.00
C54    C     0.68058   0.48086   0.50000   0.00000  Uiso   1.00
C55    C     0.64706   0.46024   0.50000   0.00000  Uiso   1.00
C56    C     0.61368   0.48097   0.50000   0.00000  Uiso   1.00
C57    C     0.57651   0.47026   0.50000   0.00000  Uiso   1.00
O9     O     0.90417   0.43571   0.50000   0.00000  Uiso   1.00
O10    O     0.71471   0.46750   0.50000   0.00000  Uiso   1.00
H17    H     0.96490   0.40673   0.50000   0.00000  Uiso   1.00
H18    H     0.85208   0.43959   0.50000   0.00000  Uiso   1.00
H19    H     0.78344   0.44018   0.50000   0.00000  Uiso   1.00
H20    H     0.64791   0.42980   0.50000   0.00000  Uiso   1.00
C58    C     0.01988   0.56690   0.50000   0.00000  Uiso   1.00
C59    C     0.03970   0.53345   0.50000   0.00000  Uiso   1.00
C60    C     0.07919   0.53345   0.50000   0.00000  Uiso   1.00
C61    C     0.16206   0.53345   0.50000   0.00000  Uiso   1.00
C62    C     0.20134   0.53345   0.50000   0.00000  Uiso   1.00
C63    C     0.31942   0.51914   0.50000   0.00000  Uiso   1.00
C64    C     0.35294   0.53976   0.50000   0.00000  Uiso   1.00
C65    C     0.38632   0.51903   0.50000   0.00000  Uiso   1.00
C66    C     0.42349   0.52974   0.50000   0.00000  Uiso   1.00
O11    O     0.09583   0.56429   0.50000   0.00000  Uiso   1.00
O12    O     0.28529   0.53250   0.50000   0.00000  Uiso   1.00
H21    H     0.03510   0.59327   0.50000   0.00000  Uiso   1.00
H22    H     0.14792   0.56041   0.50000   0.00000  Uiso   1.00
H23    H     0.21656   0.55982   0.50000   0.00000  Uiso   1.00
H24    H     0.35209   0.57020   0.50000   0.00000  Uiso   1.00
C67    C     0.43310   0.01988   0.50000   0.00000  Uiso   1.00
C68    C     0.46655   0.03970   0.50000   0.00000  Uiso   1.00
C69    C     0.46655   0.07919   0.50000   0.00000  Uiso   1.00
C70    C     0.46655   0.16206   0.50000   0.00000  Uiso   1.00
C71    C     0.46655   0.20134   0.50000   0.00000  Uiso   1.00
C72    C     0.48086   0.31942   0.50000   0.00000  Uiso   1.00
C73    C     0.46024   0.35294   0.50000   0.00000  Uiso   1.00
C74    C     0.48097   0.38632   0.50000   0.00000  Uiso   1.00
C75    C     0.47026   0.42349   0.50000   0.00000  Uiso   1.00
O13    O     0.43571   0.09583   0.50000   0.00000  Uiso   1.00
O14    O     0.46750   0.28529   0.50000   0.00000  Uiso   1.00
H25    H     0.40673   0.03510   0.50000   0.00000  Uiso   1.00
H26    H     0.43959   0.14792   0.50000   0.00000  Uiso   1.00
H27    H     0.44018   0.21656   0.50000   0.00000  Uiso   1.00
H28    H     0.42980   0.35209   0.50000   0.00000  Uiso   1.00
C76    C     0.56690   0.98012   0.50000   0.00000  Uiso   1.00
C77    C     0.53345   0.96030   0.50000   0.00000  Uiso   1.00
C78    C     0.53345   0.92081   0.50000   0.00000  Uiso   1.00
C79    C     0.53345   0.83794   0.50000   0.00000  Uiso   1.00
C80    C     0.53345   0.79867   0.50000   0.00000  Uiso   1.00
C81    C     0.51914   0.68058   0.50000   0.00000  Uiso   1.00
C82    C     0.53976   0.64706   0.50000   0.00000  Uiso   1.00
C83    C     0.51903   0.61368   0.50000   0.00000  Uiso   1.00
C84    C     0.52974   0.57651   0.50000   0.00000  Uiso   1.00
O15    O     0.56429   0.90417   0.50000   0.00000  Uiso   1.00
O16    O     0.53250   0.71471   0.50000   0.00000  Uiso   1.00
H29    H     0.59327   0.96490   0.50000   0.00000  Uiso   1.00
H30    H     0.56041   0.85208   0.50000   0.00000  Uiso   1.00
H31    H     0.55982   0.78344   0.50000   0.00000  Uiso   1.00
H32    H     0.57020   0.64791   0.50000   0.00000  Uiso   1.00
N9     N     0.43452   0.43452   0.50000   0.00000  Uiso   1.00
N10    N     0.56548   0.56548   0.50000   0.00000  Uiso   1.00
N11    N     0.56548   0.43452   0.50000   0.00000  Uiso   1.00
N12    N     0.43452   0.56548   0.50000   0.00000  Uiso   1.00
loop_
_geom_bond_atom_site_label_1
_geom_bond_atom_site_label_2
_geom_bond_distance
_geom_bond_site_symmetry_2
_ccdc_geom_bond_type
Zn1    N2      1.886   .     S
Zn1    N4      1.886   .     S
Zn1    N8      1.886   .     S
Zn1    N6      1.886   .     S
C1     C59     1.388   .     S
C1     C14     1.388   .     S
C2     N1      1.485   .     S
C2     C61     1.413   .     S
C2     C16     1.413   .     S
C3     C62     1.397   .     S
C3     B1      1.509   .     S
C3     C17     1.397   .     S
B1     O12     1.389   .     S
B1     O2      1.389   .     S
N1     C60     1.393   .     S
N1     C15     1.393   .     S
N2     C21     1.357   .     S
N2     C66     1.357   .     S
C4     C23     1.388   .     S
C4     C50     1.388   .     S
C5     N3      1.485   .     S
C5     C25     1.413   .     S
C5     C52     1.413   .     S
C6     B2      1.509   .     S
C6     C26     1.397   .     S
C6     C53     1.397   .     S
B2     O4      1.389   .     S
B2     O10     1.389   .     S
N3     C24     1.393   .     S
N3     C51     1.393   .     S
N4     C30     1.357   .     S
N4     C57     1.357   .     S
C7     C32     1.388   .     S
C7     C68     1.388   .     S
C8     N5      1.485   .     S
C8     C34     1.413   .     S
C8     C70     1.413   .     S
C9     C35     1.397   .     S
C9     C71     1.397   .     S
C9     B3      1.509   .     S
B3     O6      1.389   .     S
B3     O14     1.389   .     S
N5     C33     1.393   .     S
N5     C69     1.393   .     S
N6     C39     1.357   .     S
N6     C75     1.357   .     S
C10    C77     1.388   .     S
C10    C41     1.388   .     S
C11    N7      1.485   .     S
C11    C79     1.413   .     S
C11    C43     1.413   .     S
C12    B4      1.509   .     S
C12    C80     1.397   .     S
C12    C44     1.397   .     S
B4     O16     1.389   .     S
B4     O8      1.389   .     S
N7     C78     1.393   .     S
N7     C42     1.393   .     S
N8     C48     1.357   .     S
N8     C84     1.357   .     S
C13    C14     1.388   .     S
C13    H1      1.087   .     S
C14    C15     1.410   .     S
C15    O1      1.251   .     S
C16    C17     1.402   .     S
C16    H2      1.087   .     S
C17    H3      1.087   .     S
C18    C63     1.367   .     S
C18    C19     1.405   .     S
C18    O2      1.308   .     S
C19    H4      1.087   .     S
C19    C20     1.403   .     S
C20    C65     1.358   .     S
C20    C21     1.381   .     S
C21    N9      1.335   .     S
C22    H5      1.087   .     S
C22    C23     1.388   .     S
C23    C24     1.410   .     S
C24    O3      1.251   .     S
C25    C26     1.402   .     S
C25    H6      1.087   .     S
C26    H7      1.087   .     S
C27    C28     1.405   .     S
C27    C54     1.367   .     S
C27    O4      1.308   .     S
C28    C29     1.403   .     S
C28    H8      1.087   .     S
C29    C30     1.381   .     S
C29    C56     1.358   .     S
C30    N10     1.335   .     S
C31    H9      1.087   .     S
C31    C32     1.388   .     S
C32    C33     1.410   .     S
C33    O5      1.251   .     S
C34    C35     1.402   .     S
C34    H10     1.087   .     S
C35    H11     1.087   .     S
C36    C37     1.405   .     S
C36    C72     1.367   .     S
C36    O6      1.308   .     S
C37    C38     1.403   .     S
C37    H12     1.087   .     S
C38    C74     1.358   .     S
C38    C39     1.381   .     S
C39    N11     1.335   .     S
C40    C41     1.388   .     S
C40    H13     1.087   .     S
C41    C42     1.410   .     S
C42    O7      1.251   .     S
C43    C44     1.402   .     S
C43    H14     1.087   .     S
C44    H15     1.087   .     S
C45    C81     1.367   .     S
C45    C46     1.405   .     S
C45    O8      1.308   .     S
C46    H16     1.087   .     S
C46    C47     1.403   .     S
C47    C48     1.381   .     S
C47    C83     1.358   .     S
C48    N12     1.335   .     S
C49    C50     1.388   .     S
C49    H17     1.087   .     S
C50    C51     1.410   .     S
C51    O9      1.251   .     S
C52    C53     1.402   .     S
C52    H18     1.087   .     S
C53    H19     1.087   .     S
C54    C55     1.405   .     S
C54    O10     1.308   .     S
C55    H20     1.087   .     S
C55    C56     1.403   .     S
C56    C57     1.381   .     S
C57    N11     1.335   .     S
C58    H21     1.087   .     S
C58    C59     1.388   .     S
C59    C60     1.410   .     S
C60    O11     1.251   .     S
C61    C62     1.402   .     S
C61    H22     1.087   .     S
C62    H23     1.087   .     S
C63    C64     1.405   .     S
C63    O12     1.308   .     S
C64    C65     1.403   .     S
C64    H24     1.087   .     S
C65    C66     1.381   .     S
C66    N12     1.335   .     S
C67    C68     1.388   .     S
C67    H25     1.087   .     S
C68    C69     1.410   .     S
C69    O13     1.251   .     S
C70    C71     1.402   .     S
C70    H26     1.087   .     S
C71    H27     1.087   .     S
C72    C73     1.405   .     S
C72    O14     1.308   .     S
C73    H28     1.087   .     S
C73    C74     1.403   .     S
C74    C75     1.381   .     S
C75    N9      1.335   .     S
C76    H29     1.087   .     S
C76    C77     1.388   .     S
C77    C78     1.410   .     S
C78    O15     1.251   .     S
C79    C80     1.402   .     S
C79    H30     1.087   .     S
C80    H31     1.087   .     S
C81    C82     1.405   .     S
C81    O16     1.308   .     S
C82    H32     1.087   .     S
C82    C83     1.403   .     S
C83    C84     1.381   .     S
C84    N10     1.335   .     S
