data_ZnPc-Py
_audit_creation_date              2016-12-13
_audit_creation_method            'Materials Studio'
_symmetry_space_group_name_H-M    'P1'
_symmetry_Int_Tables_number       1
_symmetry_cell_setting            triclinic
loop_
_symmetry_equiv_pos_as_xyz
  x,y,z
_cell_length_a                    26.9800
_cell_length_b                    26.9800
_cell_length_c                    3.3380
_cell_angle_alpha                 90.0000
_cell_angle_beta                  90.0000
_cell_angle_gamma                 90.0000
loop_
_atom_site_label
_atom_site_type_symbol
_atom_site_fract_x
_atom_site_fract_y
_atom_site_fract_z
_atom_site_U_iso_or_equiv
_atom_site_adp_type
_atom_site_occupancy
C1     C     0.02746   0.41086   0.50000   0.00000  Uiso   1.00
C2     C     0.05371   0.45543   0.50000   0.00000  Uiso   1.00
C3     C     0.10567   0.45543   0.50000   0.00000  Uiso   1.00
C4     C     0.26500   0.47500   0.50000   0.00000  Uiso   1.00
C5     C     0.30900   0.45000   0.50000   0.00000  Uiso   1.00
C6     C     0.35500   0.47500   0.50000   0.00000  Uiso   1.00
C7     C     0.40100   0.46200   0.50000   0.00000  Uiso   1.00
O1     O     0.21203   0.54659   0.50000   0.00000  Uiso   1.00
H1     H     0.04731   0.37580   0.50000   0.00000  Uiso   1.00
H2     H     0.12582   0.42054   0.50000   0.00000  Uiso   1.00
H3     H     0.30928   0.40971   0.50000   0.00000  Uiso   1.00
C8     C     0.97254   0.58914   0.50000   0.00000  Uiso   1.00
C9     C     0.94629   0.54457   0.50000   0.00000  Uiso   1.00
C10    C     0.89433   0.54457   0.50000   0.00000  Uiso   1.00
C11    C     0.73500   0.52500   0.50000   0.00000  Uiso   1.00
C12    C     0.69100   0.55000   0.50000   0.00000  Uiso   1.00
C13    C     0.64500   0.52500   0.50000   0.00000  Uiso   1.00
C14    C     0.59900   0.53800   0.50000   0.00000  Uiso   1.00
O2     O     0.78797   0.45341   0.50000   0.00000  Uiso   1.00
H4     H     0.95269   0.62420   0.50000   0.00000  Uiso   1.00
H5     H     0.87418   0.57946   0.50000   0.00000  Uiso   1.00
H6     H     0.69072   0.59029   0.50000   0.00000  Uiso   1.00
C15    C     0.58914   0.02746   0.50000   0.00000  Uiso   1.00
C16    C     0.54457   0.05371   0.50000   0.00000  Uiso   1.00
C17    C     0.54457   0.10567   0.50000   0.00000  Uiso   1.00
C18    C     0.52500   0.26500   0.50000   0.00000  Uiso   1.00
C19    C     0.55000   0.30900   0.50000   0.00000  Uiso   1.00
C20    C     0.52500   0.35500   0.50000   0.00000  Uiso   1.00
C21    C     0.53800   0.40100   0.50000   0.00000  Uiso   1.00
O3     O     0.45341   0.21203   0.50000   0.00000  Uiso   1.00
H7     H     0.62420   0.04731   0.50000   0.00000  Uiso   1.00
H8     H     0.57946   0.12582   0.50000   0.00000  Uiso   1.00
H9     H     0.59029   0.30928   0.50000   0.00000  Uiso   1.00
C22    C     0.41086   0.97254   0.50000   0.00000  Uiso   1.00
C23    C     0.45543   0.94629   0.50000   0.00000  Uiso   1.00
C24    C     0.45543   0.89433   0.50000   0.00000  Uiso   1.00
C25    C     0.47500   0.73500   0.50000   0.00000  Uiso   1.00
C26    C     0.45000   0.69100   0.50000   0.00000  Uiso   1.00
C27    C     0.47500   0.64500   0.50000   0.00000  Uiso   1.00
C28    C     0.46200   0.59900   0.50000   0.00000  Uiso   1.00
O4     O     0.54659   0.78797   0.50000   0.00000  Uiso   1.00
H10    H     0.37580   0.95269   0.50000   0.00000  Uiso   1.00
H11    H     0.42054   0.87418   0.50000   0.00000  Uiso   1.00
H12    H     0.40971   0.69072   0.50000   0.00000  Uiso   1.00
C29    C     0.97254   0.41086   0.50000   0.00000  Uiso   1.00
C30    C     0.94629   0.45543   0.50000   0.00000  Uiso   1.00
C31    C     0.89433   0.45543   0.50000   0.00000  Uiso   1.00
C32    C     0.73500   0.47500   0.50000   0.00000  Uiso   1.00
C33    C     0.69100   0.45000   0.50000   0.00000  Uiso   1.00
C34    C     0.64500   0.47500   0.50000   0.00000  Uiso   1.00
C35    C     0.59900   0.46200   0.50000   0.00000  Uiso   1.00
O5     O     0.78797   0.54659   0.50000   0.00000  Uiso   1.00
H13    H     0.95269   0.37580   0.50000   0.00000  Uiso   1.00
H14    H     0.87418   0.42054   0.50000   0.00000  Uiso   1.00
H15    H     0.69072   0.40971   0.50000   0.00000  Uiso   1.00
C36    C     0.02746   0.58914   0.50000   0.00000  Uiso   1.00
C37    C     0.05371   0.54457   0.50000   0.00000  Uiso   1.00
C38    C     0.10567   0.54457   0.50000   0.00000  Uiso   1.00
C39    C     0.26500   0.52500   0.50000   0.00000  Uiso   1.00
C40    C     0.30900   0.55000   0.50000   0.00000  Uiso   1.00
C41    C     0.35500   0.52500   0.50000   0.00000  Uiso   1.00
C42    C     0.40100   0.53800   0.50000   0.00000  Uiso   1.00
O6     O     0.21203   0.45341   0.50000   0.00000  Uiso   1.00
H16    H     0.04731   0.62420   0.50000   0.00000  Uiso   1.00
H17    H     0.12582   0.57946   0.50000   0.00000  Uiso   1.00
H18    H     0.30928   0.59029   0.50000   0.00000  Uiso   1.00
C43    C     0.41086   0.02746   0.50000   0.00000  Uiso   1.00
C44    C     0.45543   0.05371   0.50000   0.00000  Uiso   1.00
C45    C     0.45543   0.10567   0.50000   0.00000  Uiso   1.00
C46    C     0.47500   0.26500   0.50000   0.00000  Uiso   1.00
C47    C     0.45000   0.30900   0.50000   0.00000  Uiso   1.00
C48    C     0.47500   0.35500   0.50000   0.00000  Uiso   1.00
C49    C     0.46200   0.40100   0.50000   0.00000  Uiso   1.00
O7     O     0.54659   0.21203   0.50000   0.00000  Uiso   1.00
H19    H     0.37580   0.04731   0.50000   0.00000  Uiso   1.00
H20    H     0.42054   0.12582   0.50000   0.00000  Uiso   1.00
H21    H     0.40971   0.30928   0.50000   0.00000  Uiso   1.00
C50    C     0.58914   0.97254   0.50000   0.00000  Uiso   1.00
C51    C     0.54457   0.94629   0.50000   0.00000  Uiso   1.00
C52    C     0.54457   0.89433   0.50000   0.00000  Uiso   1.00
C53    C     0.52500   0.73500   0.50000   0.00000  Uiso   1.00
C54    C     0.55000   0.69100   0.50000   0.00000  Uiso   1.00
C55    C     0.52500   0.64500   0.50000   0.00000  Uiso   1.00
C56    C     0.53800   0.59900   0.50000   0.00000  Uiso   1.00
O8     O     0.45341   0.78797   0.50000   0.00000  Uiso   1.00
H22    H     0.62420   0.95269   0.50000   0.00000  Uiso   1.00
H23    H     0.57946   0.87418   0.50000   0.00000  Uiso   1.00
H24    H     0.59029   0.69072   0.50000   0.00000  Uiso   1.00
C57    C     0.02746   0.50000   0.50000   0.00000  Uiso   1.00
C58    C     0.13129   0.50000   0.50000   0.00000  Uiso   1.00
B1     B     0.18282   0.50000   0.50000   0.00000  Uiso   1.00
N1     N     0.43000   0.50000   0.50000   0.00000  Uiso   1.00
C59    C     0.97254   0.50000   0.50000   0.00000  Uiso   1.00
C60    C     0.86871   0.50000   0.50000   0.00000  Uiso   1.00
B2     B     0.81718   0.50000   0.50000   0.00000  Uiso   1.00
N2     N     0.57000   0.50000   0.50000   0.00000  Uiso   1.00
C61    C     0.50000   0.02746   0.50000   0.00000  Uiso   1.00
C62    C     0.50000   0.13129   0.50000   0.00000  Uiso   1.00
B3     B     0.50000   0.18282   0.50000   0.00000  Uiso   1.00
N3     N     0.50000   0.43000   0.50000   0.00000  Uiso   1.00
C63    C     0.50000   0.97254   0.50000   0.00000  Uiso   1.00
C64    C     0.50000   0.86871   0.50000   0.00000  Uiso   1.00
B4     B     0.50000   0.81718   0.50000   0.00000  Uiso   1.00
N4     N     0.50000   0.57000   0.50000   0.00000  Uiso   1.00
N5     N     0.41600   0.58400   0.50000   0.00000  Uiso   1.00
N6     N     0.58400   0.41600   0.50000   0.00000  Uiso   1.00
N7     N     0.41600   0.41600   0.50000   0.00000  Uiso   1.00
N8     N     0.58400   0.58400   0.50000   0.00000  Uiso   1.00
Zn1    Zn    0.50000   0.50000   0.50000   0.00000  Uiso   1.00
loop_
_geom_bond_atom_site_label_1
_geom_bond_atom_site_label_2
_geom_bond_distance
_geom_bond_site_symmetry_2
_ccdc_geom_bond_type
C1     H1      1.087   .     S
C1     C2      1.395   .     S
C2     C57     1.395   .     S
C2     C3      1.402   .     S
C3     H2      1.087   .     S
C3     C58     1.387   .     S
C4     C5      1.365   .     S
C4     O6      1.543   .     S
C4     C39     1.349   .     S
C5     C6      1.413   .     S
C5     H3      1.087   .     S
C6     C7      1.290   .     S
C6     C41     1.349   .     S
C7     N1      1.290   .     S
C7     N7      1.305   .     S
O1     C39     1.543   .     S
O1     B1      1.484   .     S
C8     C9      1.395   .     S
C8     H4      1.087   .     S
C9     C10     1.402   .     S
C9     C59     1.395   .     S
C10    H5      1.087   .     S
C10    C60     1.387   .     S
C11    O5      1.543   .     S
C11    C12     1.365   .     S
C11    C32     1.349   .     S
C12    C13     1.413   .     S
C12    H6      1.087   .     S
C13    C14     1.290   .     S
C13    C34     1.349   .     S
C14    N8      1.305   .     S
C14    N2      1.290   .     S
O2     C32     1.543   .     S
O2     B2      1.484   .     S
C15    C16     1.395   .     S
C15    H7      1.087   .     S
C16    C61     1.395   .     S
C16    C17     1.402   .     S
C17    H8      1.087   .     S
C17    C62     1.387   .     S
C18    C19     1.365   .     S
C18    O7      1.543   .     S
C18    C46     1.349   .     S
C19    H9      1.087   .     S
C19    C20     1.413   .     S
C20    C21     1.290   .     S
C20    C48     1.349   .     S
C21    N6      1.305   .     S
C21    N3      1.290   .     S
O3     C46     1.543   .     S
O3     B3      1.484   .     S
C22    H10     1.087   .     S
C22    C23     1.395   .     S
C23    C63     1.395   .     S
C23    C24     1.402   .     S
C24    H11     1.087   .     S
C24    C64     1.387   .     S
C25    O8      1.543   .     S
C25    C53     1.349   .     S
C25    C26     1.365   .     S
C26    C27     1.413   .     S
C26    H12     1.087   .     S
C27    C55     1.349   .     S
C27    C28     1.290   .     S
C28    N4      1.290   .     S
C28    N5      1.305   .     S
O4     C53     1.543   .     S
O4     B4      1.484   .     S
C29    H13     1.087   .     S
C29    C30     1.395   .     S
C30    C59     1.395   .     S
C30    C31     1.402   .     S
C31    H14     1.087   .     S
C31    C60     1.387   .     S
C32    C33     1.365   .     S
C33    C34     1.413   .     S
C33    H15     1.087   .     S
C34    C35     1.290   .     S
C35    N2      1.290   .     S
C35    N6      1.305   .     S
O5     B2      1.484   .     S
C36    C37     1.395   .     S
C36    H16     1.087   .     S
C37    C38     1.402   .     S
C37    C57     1.395   .     S
C38    H17     1.087   .     S
C38    C58     1.387   .     S
C39    C40     1.365   .     S
C40    H18     1.087   .     S
C40    C41     1.413   .     S
C41    C42     1.290   .     S
C42    N5      1.305   .     S
C42    N1      1.290   .     S
O6     B1      1.484   .     S
C43    H19     1.087   .     S
C43    C44     1.395   .     S
C44    C61     1.395   .     S
C44    C45     1.402   .     S
C45    H20     1.087   .     S
C45    C62     1.387   .     S
C46    C47     1.365   .     S
C47    H21     1.087   .     S
C47    C48     1.413   .     S
C48    C49     1.290   .     S
C49    N3      1.290   .     S
C49    N7      1.305   .     S
O7     B3      1.484   .     S
C50    C51     1.395   .     S
C50    H22     1.087   .     S
C51    C63     1.395   .     S
C51    C52     1.402   .     S
C52    H23     1.087   .     S
C52    C64     1.387   .     S
C53    C54     1.365   .     S
C54    C55     1.413   .     S
C54    H24     1.087   .     S
C55    C56     1.290   .     S
C56    N8      1.305   .     S
C56    N4      1.290   .     S
O8     B4      1.484   .     S
C58    B1      1.390   .     S
N1     Zn1     1.889   .     S
C60    B2      1.390   .     S
N2     Zn1     1.889   .     S
C62    B3      1.390   .     S
N3     Zn1     1.889   .     S
C64    B4      1.390   .     S
N4     Zn1     1.889   .     S
