data_ZnPc-PPE
_audit_creation_date              2016-12-13
_audit_creation_method            'Materials Studio'
_symmetry_space_group_name_H-M    'P1'
_symmetry_Int_Tables_number       1
_symmetry_cell_setting            triclinic
loop_
_symmetry_equiv_pos_as_xyz
  x,y,z
_cell_length_a                    38.5330
_cell_length_b                    38.5330
_cell_length_c                    3.3670
_cell_angle_alpha                 90.0000
_cell_angle_beta                  90.0000
_cell_angle_gamma                 90.0000
loop_
_atom_site_label
_atom_site_type_symbol
_atom_site_fract_x
_atom_site_fract_y
_atom_site_fract_z
_atom_site_U_iso_or_equiv
_atom_site_adp_type
_atom_site_occupancy
Zn1    Zn    0.50000   0.50000   0.50000   0.00000  Uiso   1.00
N1     N     0.44838   0.50000   0.50000   0.00000  Uiso   1.00
B1     B     0.27096   0.50000   0.50000   0.00000  Uiso   1.00
C1     C     0.22744   0.50000   0.50000   0.00000  Uiso   1.00
C2     C     0.15053   0.50000   0.50000   0.00000  Uiso   1.00
C3     C     0.11087   0.50000   0.50000   0.00000  Uiso   1.00
C4     C     0.07811   0.50000   0.50000   0.00000  Uiso   1.00
C5     C     0.03844   0.50000   0.50000   0.00000  Uiso   1.00
N2     N     0.55162   0.50000   0.50000   0.00000  Uiso   1.00
B2     B     0.72904   0.50000   0.50000   0.00000  Uiso   1.00
C6     C     0.77256   0.50000   0.50000   0.00000  Uiso   1.00
C7     C     0.84947   0.50000   0.50000   0.00000  Uiso   1.00
C8     C     0.88913   0.50000   0.50000   0.00000  Uiso   1.00
C9     C     0.92189   0.50000   0.50000   0.00000  Uiso   1.00
C10    C     0.96156   0.50000   0.50000   0.00000  Uiso   1.00
N3     N     0.50000   0.44838   0.50000   0.00000  Uiso   1.00
B3     B     0.50000   0.27096   0.50000   0.00000  Uiso   1.00
C11    C     0.50000   0.22744   0.50000   0.00000  Uiso   1.00
C12    C     0.50000   0.15053   0.50000   0.00000  Uiso   1.00
C13    C     0.50000   0.11087   0.50000   0.00000  Uiso   1.00
C14    C     0.50000   0.07811   0.50000   0.00000  Uiso   1.00
C15    C     0.50000   0.03844   0.50000   0.00000  Uiso   1.00
N4     N     0.50000   0.55162   0.50000   0.00000  Uiso   1.00
B4     B     0.50000   0.72904   0.50000   0.00000  Uiso   1.00
C16    C     0.50000   0.77256   0.50000   0.00000  Uiso   1.00
C17    C     0.50000   0.84947   0.50000   0.00000  Uiso   1.00
C18    C     0.50000   0.88913   0.50000   0.00000  Uiso   1.00
C19    C     0.50000   0.92189   0.50000   0.00000  Uiso   1.00
C20    C     0.50000   0.96156   0.50000   0.00000  Uiso   1.00
N5     N     0.43786   0.43786   0.50000   0.00000  Uiso   1.00
N6     N     0.56214   0.56214   0.50000   0.00000  Uiso   1.00
N7     N     0.56214   0.43786   0.50000   0.00000  Uiso   1.00
N8     N     0.43786   0.56214   0.50000   0.00000  Uiso   1.00
O1     O     0.29326   0.46819   0.50000   0.00000  Uiso   1.00
C21    C     0.42668   0.47167   0.50000   0.00000  Uiso   1.00
C22    C     0.39130   0.48201   0.50000   0.00000  Uiso   1.00
C23    C     0.35943   0.46288   0.50000   0.00000  Uiso   1.00
C24    C     0.32740   0.48197   0.50000   0.00000  Uiso   1.00
C25    C     0.20762   0.46885   0.50000   0.00000  Uiso   1.00
C26    C     0.17030   0.46885   0.50000   0.00000  Uiso   1.00
C27    C     0.01868   0.46885   0.50000   0.00000  Uiso   1.00
H1     H     0.35990   0.43467   0.50000   0.00000  Uiso   1.00
H2     H     0.22065   0.44384   0.50000   0.00000  Uiso   1.00
H3     H     0.15619   0.44442   0.50000   0.00000  Uiso   1.00
H4     H     0.03347   0.44323   0.50000   0.00000  Uiso   1.00
O2     O     0.70674   0.53181   0.50000   0.00000  Uiso   1.00
C28    C     0.57332   0.52833   0.50000   0.00000  Uiso   1.00
C29    C     0.60870   0.51799   0.50000   0.00000  Uiso   1.00
C30    C     0.64057   0.53712   0.50000   0.00000  Uiso   1.00
C31    C     0.67260   0.51803   0.50000   0.00000  Uiso   1.00
C32    C     0.79238   0.53115   0.50000   0.00000  Uiso   1.00
C33    C     0.82970   0.53115   0.50000   0.00000  Uiso   1.00
C34    C     0.98132   0.53115   0.50000   0.00000  Uiso   1.00
H5     H     0.64010   0.56533   0.50000   0.00000  Uiso   1.00
H6     H     0.77935   0.55616   0.50000   0.00000  Uiso   1.00
H7     H     0.84381   0.55558   0.50000   0.00000  Uiso   1.00
H8     H     0.96653   0.55677   0.50000   0.00000  Uiso   1.00
O3     O     0.53181   0.29326   0.50000   0.00000  Uiso   1.00
C35    C     0.52833   0.42668   0.50000   0.00000  Uiso   1.00
C36    C     0.51799   0.39130   0.50000   0.00000  Uiso   1.00
C37    C     0.53712   0.35943   0.50000   0.00000  Uiso   1.00
C38    C     0.51803   0.32740   0.50000   0.00000  Uiso   1.00
C39    C     0.53115   0.20762   0.50000   0.00000  Uiso   1.00
C40    C     0.53115   0.17030   0.50000   0.00000  Uiso   1.00
C41    C     0.53115   0.01868   0.50000   0.00000  Uiso   1.00
H9     H     0.56533   0.35990   0.50000   0.00000  Uiso   1.00
H10    H     0.55616   0.22065   0.50000   0.00000  Uiso   1.00
H11    H     0.55558   0.15619   0.50000   0.00000  Uiso   1.00
H12    H     0.55677   0.03347   0.50000   0.00000  Uiso   1.00
O4     O     0.46819   0.70674   0.50000   0.00000  Uiso   1.00
C42    C     0.47167   0.57332   0.50000   0.00000  Uiso   1.00
C43    C     0.48201   0.60870   0.50000   0.00000  Uiso   1.00
C44    C     0.46288   0.64057   0.50000   0.00000  Uiso   1.00
C45    C     0.48197   0.67260   0.50000   0.00000  Uiso   1.00
C46    C     0.46885   0.79238   0.50000   0.00000  Uiso   1.00
C47    C     0.46885   0.82970   0.50000   0.00000  Uiso   1.00
C48    C     0.46885   0.98132   0.50000   0.00000  Uiso   1.00
H13    H     0.43467   0.64010   0.50000   0.00000  Uiso   1.00
H14    H     0.44384   0.77935   0.50000   0.00000  Uiso   1.00
H15    H     0.44442   0.84381   0.50000   0.00000  Uiso   1.00
H16    H     0.44323   0.96653   0.50000   0.00000  Uiso   1.00
O5     O     0.70674   0.46819   0.50000   0.00000  Uiso   1.00
C49    C     0.57332   0.47167   0.50000   0.00000  Uiso   1.00
C50    C     0.60870   0.48201   0.50000   0.00000  Uiso   1.00
C51    C     0.64057   0.46288   0.50000   0.00000  Uiso   1.00
C52    C     0.67260   0.48197   0.50000   0.00000  Uiso   1.00
C53    C     0.79238   0.46885   0.50000   0.00000  Uiso   1.00
C54    C     0.82970   0.46885   0.50000   0.00000  Uiso   1.00
C55    C     0.98132   0.46885   0.50000   0.00000  Uiso   1.00
H17    H     0.64010   0.43467   0.50000   0.00000  Uiso   1.00
H18    H     0.77935   0.44384   0.50000   0.00000  Uiso   1.00
H19    H     0.84381   0.44442   0.50000   0.00000  Uiso   1.00
H20    H     0.96653   0.44323   0.50000   0.00000  Uiso   1.00
O6     O     0.29326   0.53181   0.50000   0.00000  Uiso   1.00
C56    C     0.42668   0.52833   0.50000   0.00000  Uiso   1.00
C57    C     0.39130   0.51799   0.50000   0.00000  Uiso   1.00
C58    C     0.35943   0.53712   0.50000   0.00000  Uiso   1.00
C59    C     0.32740   0.51803   0.50000   0.00000  Uiso   1.00
C60    C     0.20762   0.53115   0.50000   0.00000  Uiso   1.00
C61    C     0.17030   0.53115   0.50000   0.00000  Uiso   1.00
C62    C     0.01868   0.53115   0.50000   0.00000  Uiso   1.00
H21    H     0.35990   0.56533   0.50000   0.00000  Uiso   1.00
H22    H     0.22065   0.55616   0.50000   0.00000  Uiso   1.00
H23    H     0.15619   0.55558   0.50000   0.00000  Uiso   1.00
H24    H     0.03347   0.55677   0.50000   0.00000  Uiso   1.00
O7     O     0.46819   0.29326   0.50000   0.00000  Uiso   1.00
C63    C     0.47167   0.42668   0.50000   0.00000  Uiso   1.00
C64    C     0.48201   0.39130   0.50000   0.00000  Uiso   1.00
C65    C     0.46288   0.35943   0.50000   0.00000  Uiso   1.00
C66    C     0.48197   0.32740   0.50000   0.00000  Uiso   1.00
C67    C     0.46885   0.20762   0.50000   0.00000  Uiso   1.00
C68    C     0.46885   0.17030   0.50000   0.00000  Uiso   1.00
C69    C     0.46885   0.01868   0.50000   0.00000  Uiso   1.00
H25    H     0.43467   0.35990   0.50000   0.00000  Uiso   1.00
H26    H     0.44384   0.22065   0.50000   0.00000  Uiso   1.00
H27    H     0.44442   0.15619   0.50000   0.00000  Uiso   1.00
H28    H     0.44323   0.03347   0.50000   0.00000  Uiso   1.00
O8     O     0.53181   0.70674   0.50000   0.00000  Uiso   1.00
C70    C     0.52833   0.57332   0.50000   0.00000  Uiso   1.00
C71    C     0.51799   0.60870   0.50000   0.00000  Uiso   1.00
C72    C     0.53712   0.64057   0.50000   0.00000  Uiso   1.00
C73    C     0.51803   0.67260   0.50000   0.00000  Uiso   1.00
C74    C     0.53115   0.79238   0.50000   0.00000  Uiso   1.00
C75    C     0.53115   0.82970   0.50000   0.00000  Uiso   1.00
C76    C     0.53115   0.98132   0.50000   0.00000  Uiso   1.00
H29    H     0.56533   0.64010   0.50000   0.00000  Uiso   1.00
H30    H     0.55616   0.77935   0.50000   0.00000  Uiso   1.00
H31    H     0.55558   0.84381   0.50000   0.00000  Uiso   1.00
H32    H     0.55677   0.96653   0.50000   0.00000  Uiso   1.00
loop_
_geom_bond_atom_site_label_1
_geom_bond_atom_site_label_2
_geom_bond_distance
_geom_bond_site_symmetry_2
_ccdc_geom_bond_type
Zn1    N1      1.989   .     S
Zn1    N3      1.989   .     S
Zn1    N2      1.989   .     S
Zn1    N4      1.989   .     S
N1     C21     1.375   .     S
N1     C56     1.375   .     S
B1     C1      1.677   .     S
B1     O1      1.497   .     S
B1     O6      1.497   .     S
C1     C25     1.423   .     S
C1     C60     1.423   .     S
C2     C26     1.422   .     S
C2     C3      1.528   .     S
C2     C61     1.422   .     S
C3     C4      1.262   .     S
C4     C5      1.528   .     S
C5     C27     1.421   .     S
C5     C62     1.421   .     S
N2     C49     1.375   .     S
N2     C28     1.375   .     S
B2     C6      1.677   .     S
B2     O5      1.497   .     S
B2     O2      1.497   .     S
C6     C53     1.423   .     S
C6     C32     1.423   .     S
C7     C54     1.422   .     S
C7     C8      1.528   .     S
C7     C33     1.422   .     S
C8     C9      1.262   .     S
C9     C10     1.528   .     S
C10    C55     1.421   .     S
C10    C34     1.421   .     S
N3     C63     1.375   .     S
N3     C35     1.375   .     S
B3     C11     1.677   .     S
B3     O7      1.497   .     S
B3     O3      1.497   .     S
C11    C67     1.423   .     S
C11    C39     1.423   .     S
C12    C68     1.422   .     S
C12    C40     1.422   .     S
C12    C13     1.528   .     S
C13    C14     1.262   .     S
C14    C15     1.528   .     S
C15    C69     1.421   .     S
C15    C41     1.421   .     S
N4     C42     1.375   .     S
N4     C70     1.375   .     S
B4     C16     1.677   .     S
B4     O4      1.497   .     S
B4     O8      1.497   .     S
C16    C46     1.423   .     S
C16    C74     1.423   .     S
C17    C47     1.422   .     S
C17    C75     1.422   .     S
C17    C18     1.528   .     S
C18    C19     1.262   .     S
C19    C20     1.528   .     S
C20    C48     1.421   .     S
C20    C76     1.421   .     S
N5     C21     1.372   .     S
N5     C63     1.372   .     S
N6     C28     1.372   .     S
N6     C70     1.372   .     S
N7     C49     1.372   .     S
N7     C35     1.372   .     S
N8     C42     1.372   .     S
N8     C56     1.372   .     S
O1     C24     1.419   .     S
C21    C22     1.420   .     S
C22    C23     1.432   .     S
C22    C57     1.387   .     S
C23    C24     1.437   .     S
C23    H1      1.087   .     S
C24    C59     1.389   .     S
C25    C26     1.438   .     S
C25    H2      1.087   .     S
C26    H3      1.087   .     S
C27    H4      1.140   .     S
O2     C31     1.419   .     S
C28    C29     1.420   .     S
C29    C30     1.432   .     S
C29    C50     1.387   .     S
C30    H5      1.087   .     S
C30    C31     1.437   .     S
C31    C52     1.389   .     S
C32    H6      1.087   .     S
C32    C33     1.438   .     S
C33    H7      1.087   .     S
C34    H8      1.140   .     S
O3     C38     1.419   .     S
C35    C36     1.420   .     S
C36    C64     1.387   .     S
C36    C37     1.432   .     S
C37    C38     1.437   .     S
C37    H9      1.087   .     S
C38    C66     1.389   .     S
C39    C40     1.438   .     S
C39    H10     1.087   .     S
C40    H11     1.087   .     S
C41    H12     1.140   .     S
O4     C45     1.419   .     S
C42    C43     1.420   .     S
C43    C44     1.432   .     S
C43    C71     1.387   .     S
C44    H13     1.087   .     S
C44    C45     1.437   .     S
C45    C73     1.389   .     S
C46    H14     1.087   .     S
C46    C47     1.438   .     S
C47    H15     1.087   .     S
C48    H16     1.140   .     S
O5     C52     1.419   .     S
C49    C50     1.420   .     S
C50    C51     1.432   .     S
C51    H17     1.087   .     S
C51    C52     1.437   .     S
C53    H18     1.087   .     S
C53    C54     1.438   .     S
C54    H19     1.087   .     S
C55    H20     1.140   .     S
O6     C59     1.419   .     S
C56    C57     1.420   .     S
C57    C58     1.432   .     S
C58    C59     1.437   .     S
C58    H21     1.087   .     S
C60    C61     1.438   .     S
C60    H22     1.087   .     S
C61    H23     1.087   .     S
C62    H24     1.140   .     S
O7     C66     1.419   .     S
C63    C64     1.420   .     S
C64    C65     1.432   .     S
C65    C66     1.437   .     S
C65    H25     1.087   .     S
C67    C68     1.438   .     S
C67    H26     1.087   .     S
C68    H27     1.087   .     S
C69    H28     1.140   .     S
O8     C73     1.419   .     S
C70    C71     1.420   .     S
C71    C72     1.432   .     S
C72    H29     1.087   .     S
C72    C73     1.437   .     S
C74    H30     1.087   .     S
C74    C75     1.438   .     S
C75    H31     1.087   .     S
C76    H32     1.140   .     S
