data_ZnPc-COF
_audit_creation_date              2016-12-13
_audit_creation_method            'Materials Studio'
_symmetry_space_group_name_H-M    'P1'
_symmetry_Int_Tables_number       1
_symmetry_cell_setting            triclinic
loop_
_symmetry_equiv_pos_as_xyz
  x,y,z
_cell_length_a                    46.2445
_cell_length_b                    3.5707
_cell_length_c                    46.2263
_cell_angle_alpha                 90.0000
_cell_angle_beta                  89.9856
_cell_angle_gamma                 90.0000
loop_
_atom_site_label
_atom_site_type_symbol
_atom_site_fract_x
_atom_site_fract_y
_atom_site_fract_z
_atom_site_U_iso_or_equiv
_atom_site_adp_type
_atom_site_occupancy
N1     N     0.54175   0.50001   0.49998   0.00000  Uiso   1.00
N2     N     0.55090   0.50001   0.55087   0.00000  Uiso   1.00
C1     C     0.52325   0.50001   0.55945   0.00000  Uiso   1.00
C2     C     0.51474   0.50001   0.58968   0.00000  Uiso   1.00
C3     C     0.48516   0.50001   0.58958   0.00000  Uiso   1.00
C4     C     0.47684   0.50001   0.55931   0.00000  Uiso   1.00
C5     C     0.46893   0.50001   0.61517   0.00000  Uiso   1.00
C6     C     0.48471   0.50001   0.64098   0.00000  Uiso   1.00
C7     C     0.51477   0.50001   0.64109   0.00000  Uiso   1.00
C8     C     0.53076   0.50001   0.61540   0.00000  Uiso   1.00
O1     O     0.52625   0.50001   0.66864   0.00000  Uiso   1.00
B1     B     0.49955   0.50001   0.68564   0.00000  Uiso   1.00
O2     O     0.47300   0.50001   0.66844   0.00000  Uiso   1.00
N3     N     0.55042   0.50001   0.94864   0.00000  Uiso   1.00
C9     C     0.52271   0.50001   0.94026   0.00000  Uiso   1.00
N4     N     0.49965   0.50001   0.95837   0.00000  Uiso   1.00
C10    C     0.47629   0.50001   0.94062   0.00000  Uiso   1.00
C11    C     0.48449   0.50001   0.91027   0.00000  Uiso   1.00
C12    C     0.51407   0.50001   0.91011   0.00000  Uiso   1.00
C13    C     0.53009   0.50001   0.88441   0.00000  Uiso   1.00
C14    C     0.51413   0.50001   0.85873   0.00000  Uiso   1.00
C15    C     0.48407   0.50001   0.85883   0.00000  Uiso   1.00
C16    C     0.46826   0.50001   0.88466   0.00000  Uiso   1.00
C17    C     0.44035   0.50001   0.97725   0.00000  Uiso   1.00
C18    C     0.38435   0.50001   0.97016   0.00000  Uiso   1.00
C19    C     0.35877   0.50001   0.98635   0.00000  Uiso   1.00
N5     N     0.44873   0.50001   0.94951   0.00000  Uiso   1.00
O3     O     0.52567   0.50001   0.83122   0.00000  Uiso   1.00
B2     B     0.49903   0.50001   0.81417   0.00000  Uiso   1.00
C20    C     0.49920   0.50001   0.78034   0.00000  Uiso   1.00
C21    C     0.47305   0.50001   0.76489   0.00000  Uiso   1.00
C22    C     0.52569   0.50001   0.73492   0.00000  Uiso   1.00
C23    C     0.52554   0.50001   0.76511   0.00000  Uiso   1.00
O4     O     0.47242   0.50001   0.83133   0.00000  Uiso   1.00
H1     H     0.44555   0.50001   0.61522   0.00000  Uiso   1.00
H2     H     0.55413   0.50001   0.61563   0.00000  Uiso   1.00
H3     H     0.44488   0.50001   0.88460   0.00000  Uiso   1.00
H4     H     0.55346   0.50001   0.88419   0.00000  Uiso   1.00
H5     H     0.54637   0.50001   0.72371   0.00000  Uiso   1.00
H6     H     0.54611   0.50001   0.77652   0.00000  Uiso   1.00
N6     H     0.45266   0.50001   0.72328   0.00000  Uiso   1.00
N7     H     0.45240   0.50001   0.77609   0.00000  Uiso   1.00
C24    C     0.02358   0.50001   0.55915   0.00000  Uiso   1.00
C25    C     0.01550   0.50001   0.58948   0.00000  Uiso   1.00
C26    C     0.01633   0.50001   0.64087   0.00000  Uiso   1.00
C27    C     0.03192   0.50001   0.61495   0.00000  Uiso   1.00
H7     H     0.05530   0.50001   0.61482   0.00000  Uiso   1.00
N8     N     0.00021   0.50001   0.54146   0.00000  Uiso   1.00
N9     N     0.05166   0.50001   0.94982   0.00000  Uiso   1.00
C28    C     0.02417   0.50001   0.94076   0.00000  Uiso   1.00
N10    N     0.00069   0.50001   0.95836   0.00000  Uiso   1.00
C29    C     0.98592   0.50001   0.58980   0.00000  Uiso   1.00
O5     O     0.97502   0.50001   0.66886   0.00000  Uiso   1.00
B3     B     0.00184   0.50001   0.68565   0.00000  Uiso   1.00
O6     O     0.02824   0.50001   0.66824   0.00000  Uiso   1.00
C30    C     0.01618   0.50001   0.91037   0.00000  Uiso   1.00
C31    C     0.98660   0.50001   0.91000   0.00000  Uiso   1.00
C32    C     0.97776   0.50001   0.94011   0.00000  Uiso   1.00
C33    C     0.97080   0.50001   0.88418   0.00000  Uiso   1.00
C35    C     0.01703   0.50001   0.85893   0.00000  Uiso   1.00
C36    C     0.03263   0.50001   0.88488   0.00000  Uiso   1.00
C34    C     0.98697   0.50001   0.85863   0.00000  Uiso   1.00
O7     O     0.02887   0.50001   0.83150   0.00000  Uiso   1.00
B4     B     0.00239   0.50001   0.81418   0.00000  Uiso   1.00
C37    C     0.00234   0.50001   0.78035   0.00000  Uiso   1.00
C38    C     0.97602   0.50001   0.76512   0.00000  Uiso   1.00
C39    C     0.97587   0.50001   0.73495   0.00000  Uiso   1.00
C40    C     0.00205   0.50001   0.71947   0.00000  Uiso   1.00
C41    C     0.02837   0.50001   0.73469   0.00000  Uiso   1.00
O8     O     0.97564   0.50001   0.83104   0.00000  Uiso   1.00
H8     H     0.94672   0.50001   0.61601   0.00000  Uiso   1.00
H9     H     0.94742   0.50001   0.88376   0.00000  Uiso   1.00
H10    H     0.05600   0.50001   0.88504   0.00000  Uiso   1.00
H11    H     0.95518   0.50001   0.72376   0.00000  Uiso   1.00
H12    H     0.95542   0.50001   0.77649   0.00000  Uiso   1.00
N11    H     0.04892   0.50001   0.72330   0.00000  Uiso   1.00
N12    H     0.04916   0.50001   0.77610   0.00000  Uiso   1.00
C42    C     0.49950   0.50001   0.71946   0.00000  Uiso   1.00
C43    C     0.47320   0.50001   0.73469   0.00000  Uiso   1.00
C44    C     0.02851   0.50001   0.76489   0.00000  Uiso   1.00
N13    N     0.45867   0.50001   0.49975   0.00000  Uiso   1.00
N14    N     0.44953   0.50001   0.44887   0.00000  Uiso   1.00
C45    C     0.47718   0.50001   0.44031   0.00000  Uiso   1.00
C46    C     0.48568   0.50001   0.41008   0.00000  Uiso   1.00
C47    C     0.51526   0.50001   0.41016   0.00000  Uiso   1.00
C48    C     0.52358   0.50001   0.44043   0.00000  Uiso   1.00
C49    C     0.53146   0.50001   0.38455   0.00000  Uiso   1.00
C50    C     0.51565   0.50001   0.35876   0.00000  Uiso   1.00
C51    C     0.48559   0.50001   0.35868   0.00000  Uiso   1.00
C52    C     0.46963   0.50001   0.38439   0.00000  Uiso   1.00
O9     O     0.47409   0.50001   0.33114   0.00000  Uiso   1.00
B5     B     0.50077   0.50001   0.31414   0.00000  Uiso   1.00
O10    O     0.52732   0.50001   0.33130   0.00000  Uiso   1.00
N15    N     0.44969   0.50001   0.05122   0.00000  Uiso   1.00
C53    C     0.47738   0.50001   0.05961   0.00000  Uiso   1.00
N16    N     0.50044   0.50001   0.04149   0.00000  Uiso   1.00
C54    C     0.52379   0.50001   0.05924   0.00000  Uiso   1.00
C55    C     0.51560   0.50001   0.08958   0.00000  Uiso   1.00
C56    C     0.48602   0.50001   0.08977   0.00000  Uiso   1.00
C57    C     0.47002   0.50001   0.11550   0.00000  Uiso   1.00
C58    C     0.48602   0.50001   0.14114   0.00000  Uiso   1.00
C59    C     0.51608   0.50001   0.14101   0.00000  Uiso   1.00
C60    C     0.53186   0.50001   0.11516   0.00000  Uiso   1.00
C61    C     0.55975   0.50001   0.02262   0.00000  Uiso   1.00
C62    C     0.61572   0.50001   0.02975   0.00000  Uiso   1.00
C63    C     0.64132   0.50001   0.01358   0.00000  Uiso   1.00
N17    N     0.55136   0.50001   0.05035   0.00000  Uiso   1.00
O11    O     0.47452   0.50001   0.16866   0.00000  Uiso   1.00
B6     B     0.50117   0.50001   0.18566   0.00000  Uiso   1.00
C64    C     0.50103   0.50001   0.21946   0.00000  Uiso   1.00
C65    C     0.52720   0.50001   0.23488   0.00000  Uiso   1.00
C66    C     0.47458   0.50001   0.26490   0.00000  Uiso   1.00
C67    C     0.47470   0.50001   0.23472   0.00000  Uiso   1.00
O12    O     0.52775   0.50001   0.16848   0.00000  Uiso   1.00
H13    H     0.55484   0.50001   0.38448   0.00000  Uiso   1.00
H14    H     0.44625   0.50001   0.38423   0.00000  Uiso   1.00
H15    H     0.55524   0.50001   0.11516   0.00000  Uiso   1.00
H16    H     0.44664   0.50001   0.11578   0.00000  Uiso   1.00
H17    H     0.45391   0.50001   0.27612   0.00000  Uiso   1.00
H18    H     0.45410   0.50001   0.22335   0.00000  Uiso   1.00
N18    H     0.54765   0.50001   0.27641   0.00000  Uiso   1.00
N19    H     0.54784   0.50001   0.22366   0.00000  Uiso   1.00
C68    C     0.97616   0.50001   0.44063   0.00000  Uiso   1.00
C69    C     0.98427   0.50001   0.41030   0.00000  Uiso   1.00
C70    C     0.98349   0.50001   0.35891   0.00000  Uiso   1.00
C71    C     0.96787   0.50001   0.38482   0.00000  Uiso   1.00
H19    H     0.94449   0.50001   0.38493   0.00000  Uiso   1.00
N20    N     0.99953   0.50001   0.45832   0.00000  Uiso   1.00
N21    N     0.94846   0.50001   0.05001   0.00000  Uiso   1.00
C72    C     0.97596   0.50001   0.05907   0.00000  Uiso   1.00
N22    N     0.99942   0.50001   0.04147   0.00000  Uiso   1.00
C73    C     0.01384   0.50001   0.41000   0.00000  Uiso   1.00
O13    O     0.02484   0.50001   0.33098   0.00000  Uiso   1.00
B7     B     0.99805   0.50001   0.31416   0.00000  Uiso   1.00
O14    O     0.97161   0.50001   0.33153   0.00000  Uiso   1.00
C74    C     0.98392   0.50001   0.08946   0.00000  Uiso   1.00
C75    C     0.01350   0.50001   0.08983   0.00000  Uiso   1.00
C76    C     0.02237   0.50001   0.05972   0.00000  Uiso   1.00
C77    C     0.02930   0.50001   0.11565   0.00000  Uiso   1.00
C79    C     0.98306   0.50001   0.14089   0.00000  Uiso   1.00
C80    C     0.96747   0.50001   0.11494   0.00000  Uiso   1.00
C78    C     0.01312   0.50001   0.14120   0.00000  Uiso   1.00
O15    O     0.97120   0.50001   0.16831   0.00000  Uiso   1.00
B8     B     0.99767   0.50001   0.18564   0.00000  Uiso   1.00
C81    C     0.99767   0.50001   0.21947   0.00000  Uiso   1.00
C82    C     0.02398   0.50001   0.23473   0.00000  Uiso   1.00
C83    C     0.02409   0.50001   0.26490   0.00000  Uiso   1.00
C84    C     0.99789   0.50001   0.28035   0.00000  Uiso   1.00
C85    C     0.97160   0.50001   0.26511   0.00000  Uiso   1.00
O16    O     0.02443   0.50001   0.16880   0.00000  Uiso   1.00
H20    H     0.05307   0.50001   0.38383   0.00000  Uiso   1.00
H21    H     0.05267   0.50001   0.11605   0.00000  Uiso   1.00
H22    H     0.94409   0.50001   0.11481   0.00000  Uiso   1.00
H23    H     0.04478   0.50001   0.27611   0.00000  Uiso   1.00
H24    H     0.04459   0.50001   0.22338   0.00000  Uiso   1.00
N23    H     0.95104   0.50001   0.27649   0.00000  Uiso   1.00
N24    H     0.95085   0.50001   0.22369   0.00000  Uiso   1.00
C86    C     0.50080   0.50001   0.28032   0.00000  Uiso   1.00
C87    C     0.52709   0.50001   0.26507   0.00000  Uiso   1.00
C88    C     0.97149   0.50001   0.23490   0.00000  Uiso   1.00
Ni1    Zn    0.50006   0.50001   0.99993   0.00000  Uiso   1.00
Ni2    Zn    0.00007   0.50001   0.99992   0.00000  Uiso   1.00
N25    N     0.50033   0.50001   0.45830   0.00000  Uiso   1.00
N26    N     0.55118   0.50001   0.44914   0.00000  Uiso   1.00
C89    C     0.55973   0.50001   0.47680   0.00000  Uiso   1.00
C90    C     0.58994   0.50001   0.48528   0.00000  Uiso   1.00
C91    C     0.58986   0.50001   0.51487   0.00000  Uiso   1.00
C92    C     0.55961   0.50001   0.52324   0.00000  Uiso   1.00
C93    C     0.61545   0.50001   0.53105   0.00000  Uiso   1.00
C94    C     0.64123   0.50001   0.51521   0.00000  Uiso   1.00
C95    C     0.64131   0.50001   0.48514   0.00000  Uiso   1.00
C96    C     0.61561   0.50001   0.46919   0.00000  Uiso   1.00
O17    O     0.66884   0.50001   0.47361   0.00000  Uiso   1.00
B9     B     0.68583   0.50001   0.50029   0.00000  Uiso   1.00
O18    O     0.66868   0.50001   0.52687   0.00000  Uiso   1.00
N27    N     0.94863   0.50001   0.44954   0.00000  Uiso   1.00
C97    C     0.94025   0.50001   0.47725   0.00000  Uiso   1.00
N28    N     0.95834   0.50001   0.50031   0.00000  Uiso   1.00
C98    C     0.94059   0.50001   0.52368   0.00000  Uiso   1.00
C99    C     0.91026   0.50001   0.51548   0.00000  Uiso   1.00
C100   C     0.91011   0.50001   0.48589   0.00000  Uiso   1.00
C101   C     0.88443   0.50001   0.46986   0.00000  Uiso   1.00
C102   C     0.85877   0.50001   0.48583   0.00000  Uiso   1.00
C103   C     0.85885   0.50001   0.51590   0.00000  Uiso   1.00
C104   C     0.88465   0.50001   0.53172   0.00000  Uiso   1.00
C105   C     0.97718   0.50001   0.55962   0.00000  Uiso   1.00
C106   C     0.97009   0.50001   0.61563   0.00000  Uiso   1.00
C107   C     0.98628   0.50001   0.64121   0.00000  Uiso   1.00
N29    N     0.94946   0.50001   0.55125   0.00000  Uiso   1.00
O19    O     0.83129   0.50001   0.47428   0.00000  Uiso   1.00
B10    B     0.81425   0.50001   0.50091   0.00000  Uiso   1.00
C108   C     0.78046   0.50001   0.50069   0.00000  Uiso   1.00
C109   C     0.76498   0.50001   0.52684   0.00000  Uiso   1.00
C110   C     0.73511   0.50001   0.47414   0.00000  Uiso   1.00
C111   C     0.76528   0.50001   0.47432   0.00000  Uiso   1.00
O20    O     0.83136   0.50001   0.52753   0.00000  Uiso   1.00
H25    H     0.61552   0.50001   0.55443   0.00000  Uiso   1.00
H26    H     0.61580   0.50001   0.44581   0.00000  Uiso   1.00
H27    H     0.88458   0.50001   0.55511   0.00000  Uiso   1.00
H28    H     0.88422   0.50001   0.44647   0.00000  Uiso   1.00
H29    H     0.72393   0.50001   0.45345   0.00000  Uiso   1.00
H30    H     0.77671   0.50001   0.45374   0.00000  Uiso   1.00
N30    H     0.72339   0.50001   0.54720   0.00000  Uiso   1.00
N31    H     0.77614   0.50001   0.54752   0.00000  Uiso   1.00
C112   C     0.55931   0.50001   0.97619   0.00000  Uiso   1.00
C113   C     0.58964   0.50001   0.98430   0.00000  Uiso   1.00
C114   C     0.64102   0.50001   0.98351   0.00000  Uiso   1.00
C115   C     0.61512   0.50001   0.96789   0.00000  Uiso   1.00
H31    H     0.61506   0.50001   0.94451   0.00000  Uiso   1.00
N32    N     0.54162   0.50001   0.99958   0.00000  Uiso   1.00
N33    N     0.94999   0.50001   0.94833   0.00000  Uiso   1.00
C116   C     0.94093   0.50001   0.97583   0.00000  Uiso   1.00
N34    N     0.95851   0.50001   0.99930   0.00000  Uiso   1.00
C117   C     0.58992   0.50001   0.01389   0.00000  Uiso   1.00
O21    O     0.66895   0.50001   0.02487   0.00000  Uiso   1.00
B11    B     0.68578   0.50001   0.99805   0.00000  Uiso   1.00
O22    O     0.66840   0.50001   0.97162   0.00000  Uiso   1.00
C118   C     0.91054   0.50001   0.98381   0.00000  Uiso   1.00
C119   C     0.91015   0.50001   0.01339   0.00000  Uiso   1.00
C120   C     0.94025   0.50001   0.02225   0.00000  Uiso   1.00
C121   C     0.88431   0.50001   0.02919   0.00000  Uiso   1.00
C123   C     0.85911   0.50001   0.98292   0.00000  Uiso   1.00
C124   C     0.88508   0.50001   0.96734   0.00000  Uiso   1.00
C122   C     0.85877   0.50001   0.01299   0.00000  Uiso   1.00
O23    O     0.83171   0.50001   0.97104   0.00000  Uiso   1.00
B12    B     0.81435   0.50001   0.99752   0.00000  Uiso   1.00
C125   C     0.78051   0.50001   0.99755   0.00000  Uiso   1.00
C126   C     0.76526   0.50001   0.02388   0.00000  Uiso   1.00
C127   C     0.73509   0.50001   0.02402   0.00000  Uiso   1.00
C128   C     0.71963   0.50001   0.99783   0.00000  Uiso   1.00
C129   C     0.73487   0.50001   0.97151   0.00000  Uiso   1.00
O24    O     0.83117   0.50001   0.02430   0.00000  Uiso   1.00
H32    H     0.61606   0.50001   0.05313   0.00000  Uiso   1.00
H33    H     0.88387   0.50001   0.05257   0.00000  Uiso   1.00
H34    H     0.88525   0.50001   0.94396   0.00000  Uiso   1.00
H35    H     0.72388   0.50001   0.04472   0.00000  Uiso   1.00
H36    H     0.77663   0.50001   0.04448   0.00000  Uiso   1.00
N35    H     0.72348   0.50001   0.95095   0.00000  Uiso   1.00
N36    H     0.77629   0.50001   0.95072   0.00000  Uiso   1.00
C130   C     0.71963   0.50001   0.50033   0.00000  Uiso   1.00
C131   C     0.73480   0.50001   0.52666   0.00000  Uiso   1.00
C132   C     0.76507   0.50001   0.97137   0.00000  Uiso   1.00
N37    N     0.50010   0.50001   0.54145   0.00000  Uiso   1.00
N38    N     0.44924   0.50001   0.55058   0.00000  Uiso   1.00
C133   C     0.44070   0.50001   0.52291   0.00000  Uiso   1.00
C134   C     0.41050   0.50001   0.51442   0.00000  Uiso   1.00
C135   C     0.41055   0.50001   0.48483   0.00000  Uiso   1.00
C136   C     0.44081   0.50001   0.47649   0.00000  Uiso   1.00
C137   C     0.38493   0.50001   0.46865   0.00000  Uiso   1.00
C138   C     0.35917   0.50001   0.48452   0.00000  Uiso   1.00
C139   C     0.35915   0.50001   0.51459   0.00000  Uiso   1.00
C140   C     0.38485   0.50001   0.53051   0.00000  Uiso   1.00
O25    O     0.33167   0.50001   0.52617   0.00000  Uiso   1.00
B13    B     0.31461   0.50001   0.49954   0.00000  Uiso   1.00
O26    O     0.33168   0.50001   0.47292   0.00000  Uiso   1.00
N39    N     0.05111   0.50001   0.55024   0.00000  Uiso   1.00
C141   C     0.05949   0.50001   0.52253   0.00000  Uiso   1.00
N40    N     0.04140   0.50001   0.49947   0.00000  Uiso   1.00
C142   C     0.05916   0.50001   0.47611   0.00000  Uiso   1.00
C143   C     0.08949   0.50001   0.48431   0.00000  Uiso   1.00
C144   C     0.08962   0.50001   0.51390   0.00000  Uiso   1.00
C145   C     0.11526   0.50001   0.52995   0.00000  Uiso   1.00
C146   C     0.14093   0.50001   0.51400   0.00000  Uiso   1.00
C147   C     0.14091   0.50001   0.48393   0.00000  Uiso   1.00
C148   C     0.11511   0.50001   0.46808   0.00000  Uiso   1.00
C149   C     0.02257   0.50001   0.44017   0.00000  Uiso   1.00
C150   C     0.02970   0.50001   0.38419   0.00000  Uiso   1.00
C151   C     0.01354   0.50001   0.35860   0.00000  Uiso   1.00
N41    N     0.05029   0.50001   0.44854   0.00000  Uiso   1.00
O27    O     0.16837   0.50001   0.52561   0.00000  Uiso   1.00
B14    B     0.18548   0.50001   0.49901   0.00000  Uiso   1.00
C152   C     0.21927   0.50001   0.49946   0.00000  Uiso   1.00
C153   C     0.23506   0.50001   0.47348   0.00000  Uiso   1.00
C154   C     0.26580   0.50001   0.52610   0.00000  Uiso   1.00
C155   C     0.23406   0.50001   0.52595   0.00000  Uiso   1.00
O28    O     0.16844   0.50001   0.47235   0.00000  Uiso   1.00
H37    H     0.38483   0.50001   0.44526   0.00000  Uiso   1.00
H38    H     0.38469   0.50001   0.55389   0.00000  Uiso   1.00
H39    H     0.11518   0.50001   0.44470   0.00000  Uiso   1.00
H40    H     0.11545   0.50001   0.55333   0.00000  Uiso   1.00
H41    H     0.27706   0.50001   0.54675   0.00000  Uiso   1.00
H42    H     0.22259   0.50001   0.54650   0.00000  Uiso   1.00
N42    H     0.27654   0.50001   0.45301   0.00000  Uiso   1.00
N43    H     0.22400   0.50001   0.45274   0.00000  Uiso   1.00
C156   C     0.44079   0.50001   0.02368   0.00000  Uiso   1.00
C157   C     0.41048   0.50001   0.01558   0.00000  Uiso   1.00
C158   C     0.35909   0.50001   0.01642   0.00000  Uiso   1.00
C159   C     0.38501   0.50001   0.03201   0.00000  Uiso   1.00
H43    H     0.38514   0.50001   0.05540   0.00000  Uiso   1.00
N44    N     0.45849   0.50001   0.00029   0.00000  Uiso   1.00
N45    N     0.05012   0.50001   0.05151   0.00000  Uiso   1.00
C160   C     0.05920   0.50001   0.02401   0.00000  Uiso   1.00
N46    N     0.04163   0.50001   0.00053   0.00000  Uiso   1.00
C161   C     0.41017   0.50001   0.98599   0.00000  Uiso   1.00
O29    O     0.33114   0.50001   0.97508   0.00000  Uiso   1.00
B15    B     0.31433   0.50001   0.00191   0.00000  Uiso   1.00
O30    O     0.33172   0.50001   0.02832   0.00000  Uiso   1.00
C162   C     0.08960   0.50001   0.01605   0.00000  Uiso   1.00
C163   C     0.08999   0.50001   0.98646   0.00000  Uiso   1.00
C164   C     0.05988   0.50001   0.97759   0.00000  Uiso   1.00
C165   C     0.11584   0.50001   0.97067   0.00000  Uiso   1.00
C167   C     0.14102   0.50001   0.01694   0.00000  Uiso   1.00
C168   C     0.11506   0.50001   0.03252   0.00000  Uiso   1.00
C166   C     0.14137   0.50001   0.98688   0.00000  Uiso   1.00
O31    O     0.16842   0.50001   0.02883   0.00000  Uiso   1.00
B16    B     0.18579   0.50001   0.00236   0.00000  Uiso   1.00
C169   C     0.21962   0.50001   0.00236   0.00000  Uiso   1.00
C170   C     0.23488   0.50001   0.97603   0.00000  Uiso   1.00
C171   C     0.26504   0.50001   0.97590   0.00000  Uiso   1.00
C172   C     0.28050   0.50001   0.00210   0.00000  Uiso   1.00
C173   C     0.26525   0.50001   0.02841   0.00000  Uiso   1.00
O32    O     0.16897   0.50001   0.97558   0.00000  Uiso   1.00
H44    H     0.38397   0.50001   0.94678   0.00000  Uiso   1.00
H45    H     0.11628   0.50001   0.94729   0.00000  Uiso   1.00
H46    H     0.11490   0.50001   0.05591   0.00000  Uiso   1.00
H47    H     0.27623   0.50001   0.95520   0.00000  Uiso   1.00
H48    H     0.22352   0.50001   0.95542   0.00000  Uiso   1.00
N47    H     0.27662   0.50001   0.04898   0.00000  Uiso   1.00
N48    H     0.22383   0.50001   0.04920   0.00000  Uiso   1.00
C174   C     0.28083   0.50001   0.49976   0.00000  Uiso   1.00
C175   C     0.26529   0.50001   0.47363   0.00000  Uiso   1.00
C176   C     0.23505   0.50001   0.02855   0.00000  Uiso   1.00
Ni3    Zn    0.99987   0.50001   0.49989   0.00000  Uiso   1.00
Ni4    Zn    0.50021   0.50001   0.49987   0.00000  Uiso   1.00
loop_
_geom_bond_atom_site_label_1
_geom_bond_atom_site_label_2
_geom_bond_distance
_geom_bond_site_symmetry_2
_ccdc_geom_bond_type
N1     C92     1.356   .     S
N1     Ni4     1.921   .     S
N1     C89     1.356   .     S
N2     C1      1.339   .     S
N2     C92     1.339   .     S
C1     C2      1.452   .     S
C1     N37     1.356   .     S
C2     C3      1.368   .     S
C2     C8      1.401   .     S
C3     C4      1.451   .     S
C3     C5      1.401   .     S
C4     N38     1.339   .     S
C4     N37     1.356   .     S
C5     H1      1.081   .     S
C5     C6      1.399   .     S
C6     C7      1.390   .     S
C6     O2      1.380   .     S
C7     C8      1.399   .     S
C7     O1      1.380   .     S
C8     H2      1.081   .     S
O1     B1      1.463   .     S
B1     C42     1.564   .     S
B1     O2      1.463   .     S
N3     C9      1.339   .     S
N3     C112    1.338   .     S
C9     N4      1.356   .     S
C9     C12     1.450   .     S
N4     C10     1.357   .     S
N4     Ni1     1.921   .     S
C10    N5      1.339   .     S
C10    C11     1.453   .     S
C11    C12     1.368   .     S
C11    C16     1.402   .     S
C12    C13     1.400   .     S
C13    C14     1.398   .     S
C13    H4      1.081   .     S
C14    C15     1.390   .     S
C14    O3      1.379   .     S
C15    C16     1.400   .     S
C15    O4      1.381   .     S
C16    H3      1.081   .     S
C17    C161    1.453   .     S
C17    N5      1.339   .     S
C18    C161    1.401   .     S
C18    C19     1.400   .     S
C18    H44     1.081   .     S
C19    O29     1.380   .     S
O3     B2      1.462   .     S
B2     O4      1.464   .     S
B2     C20     1.564   .     S
C20    C23     1.407   .     S
C20    C21     1.405   .     S
C21    N7      1.086   .     S
C21    C43     1.396   .     S
C22    C23     1.396   .     S
C22    H5      1.088   .     S
C22    C42     1.406   .     S
C23    H6      1.088   .     S
N6     C43     1.086   .     S
C24    C25     1.451   .     S
C24    N39     1.338   .     S
C24    N8      1.356   .     S
C25    C27     1.401   .     S
C26    C27     1.398   .     S
C26    O6      1.380   .     S
C27    H7      1.081   .     S
N9     C28     1.338   .     S
N9     C164    1.339   .     S
C28    N10     1.356   .     S
C28    C30     1.453   .     S
N10    Ni2     1.921   .     S
C29    C105    1.452   .     S
C29    C106    1.401   .     S
O5     C107    1.380   .     S
B3     O6      1.462   .     S
B3     C40     1.563   .     S
C30    C36     1.402   .     S
C31    C32     1.451   .     S
C31    C33     1.400   .     S
C32    N33     1.339   .     S
C33    C34     1.398   .     S
C33    H9      1.081   .     S
C35    C36     1.400   .     S
C35    O7      1.381   .     S
C36    H10     1.081   .     S
C34    O8      1.379   .     S
O7     B4      1.463   .     S
B4     C37     1.564   .     S
C37    C44     1.405   .     S
C38    C39     1.395   .     S
C38    H12     1.088   .     S
C39    H11     1.088   .     S
C40    C41     1.406   .     S
C41    N11     1.086   .     S
C41    C44     1.396   .     S
H8     C106    1.081   .     S
N12    C44     1.086   .     S
C42    C43     1.405   .     S
N13    C133    1.356   .     S
N13    Ni4     1.921   .     S
N13    C136    1.356   .     S
N14    C45     1.339   .     S
N14    C136    1.338   .     S
C45    N25     1.356   .     S
C45    C46     1.451   .     S
C46    C47     1.368   .     S
C46    C52     1.401   .     S
C47    C49     1.401   .     S
C47    C48     1.451   .     S
C48    N25     1.356   .     S
C48    N26     1.338   .     S
C49    H13     1.081   .     S
C49    C50     1.399   .     S
C50    C51     1.390   .     S
C50    O10     1.379   .     S
C51    O9      1.380   .     S
C51    C52     1.399   .     S
C52    H14     1.081   .     S
O9     B5      1.463   .     S
B5     O10     1.462   .     S
B5     C86     1.563   .     S
N15    C53     1.338   .     S
N15    C156    1.338   .     S
C53    N16     1.356   .     S
C53    C56     1.450   .     S
N16    C54     1.356   .     S
C54    N17     1.339   .     S
C54    C55     1.453   .     S
C55    C56     1.368   .     S
C55    C60     1.402   .     S
C56    C57     1.400   .     S
C57    H16     1.081   .     S
C57    C58     1.398   .     S
C58    C59     1.390   .     S
C58    O11     1.379   .     S
C59    O12     1.380   .     S
C59    C60     1.400   .     S
C60    H15     1.081   .     S
C61    N17     1.339   .     S
C61    C117    1.452   .     S
C62    C63     1.400   .     S
C62    H32     1.081   .     S
C62    C117    1.401   .     S
C63    O21     1.380   .     S
O11    B6      1.462   .     S
B6     C64     1.563   .     S
B6     O12     1.463   .     S
C64    C65     1.405   .     S
C64    C67     1.407   .     S
C65    N19     1.086   .     S
C65    C87     1.395   .     S
C66    H17     1.088   .     S
C66    C86     1.407   .     S
C66    C67     1.395   .     S
C67    H18     1.088   .     S
N18    C87     1.086   .     S
C68    N20     1.356   .     S
C68    N27     1.338   .     S
C68    C69     1.451   .     S
C69    C71     1.401   .     S
C70    O14     1.380   .     S
C70    C71     1.399   .     S
C71    H19     1.081   .     S
N20    Ni3     1.921   .     S
N21    C120    1.339   .     S
N21    C72     1.339   .     S
C72    N22     1.356   .     S
C72    C74     1.453   .     S
C73    C150    1.400   .     S
C73    C149    1.452   .     S
O13    C151    1.380   .     S
B7     O14     1.462   .     S
B7     C84     1.563   .     S
C74    C80     1.402   .     S
C75    C77     1.400   .     S
C75    C76     1.451   .     S
C76    N45     1.339   .     S
C77    H21     1.081   .     S
C77    C78     1.398   .     S
C79    O15     1.381   .     S
C79    C80     1.400   .     S
C80    H22     1.081   .     S
C78    O16     1.379   .     S
O15    B8      1.463   .     S
B8     C81     1.564   .     S
C81    C88     1.405   .     S
C82    H24     1.088   .     S
C82    C83     1.395   .     S
C83    H23     1.088   .     S
C84    C85     1.405   .     S
C85    N23     1.087   .     S
C85    C88     1.396   .     S
H20    C150    1.081   .     S
N24    C88     1.086   .     S
C86    C87     1.405   .     S
Ni1    N32     1.922   .     S
N25    Ni4     1.922   .     S
N26    C89     1.339   .     S
C89    C90     1.451   .     S
C90    C91     1.368   .     S
C90    C96     1.401   .     S
C91    C92     1.451   .     S
C91    C93     1.400   .     S
C93    C94     1.399   .     S
C93    H25     1.081   .     S
C94    C95     1.390   .     S
C94    O18     1.379   .     S
C95    C96     1.399   .     S
C95    O17     1.380   .     S
C96    H26     1.081   .     S
O17    B9      1.463   .     S
B9     O18     1.463   .     S
B9     C130    1.563   .     S
N27    C97     1.338   .     S
C97    N28     1.355   .     S
C97    C100    1.450   .     S
N28    C98     1.356   .     S
N28    Ni3     1.921   .     S
C98    C99     1.453   .     S
C98    N29     1.339   .     S
C99    C100    1.368   .     S
C99    C104    1.402   .     S
C100   C101    1.400   .     S
C101   H28     1.081   .     S
C101   C102    1.397   .     S
C102   C103    1.390   .     S
C102   O19     1.379   .     S
C103   C104    1.400   .     S
C103   O20     1.380   .     S
C104   H27     1.081   .     S
C105   N29     1.339   .     S
C106   C107    1.400   .     S
O19    B10     1.462   .     S
B10    O20     1.463   .     S
B10    C108    1.563   .     S
C108   C109    1.405   .     S
C108   C111    1.407   .     S
C109   C131    1.395   .     S
C109   N31     1.086   .     S
C110   C111    1.395   .     S
C110   H29     1.088   .     S
C110   C130    1.406   .     S
C111   H30     1.088   .     S
N30    C131    1.086   .     S
C112   C113    1.452   .     S
C112   N32     1.356   .     S
C113   C115    1.401   .     S
C114   C115    1.399   .     S
C114   O22     1.380   .     S
C115   H31     1.081   .     S
N33    C116    1.339   .     S
C116   N34     1.356   .     S
C116   C118    1.453   .     S
B11    O22     1.463   .     S
B11    C128    1.566   .     S
C118   C124    1.402   .     S
C119   C120    1.451   .     S
C119   C121    1.400   .     S
C121   C122    1.398   .     S
C121   H33     1.081   .     S
C123   C124    1.400   .     S
C123   O23     1.381   .     S
C124   H34     1.081   .     S
C122   O24     1.379   .     S
O23    B12     1.464   .     S
B12    C125    1.565   .     S
C125   C132    1.405   .     S
C126   C127    1.395   .     S
C126   H36     1.088   .     S
C127   H35     1.088   .     S
C128   C129    1.406   .     S
C129   C132    1.397   .     S
C129   N35     1.087   .     S
N36    C132    1.086   .     S
C130   C131    1.405   .     S
N37    Ni4     1.922   .     S
N38    C133    1.339   .     S
C133   C134    1.451   .     S
C134   C135    1.368   .     S
C134   C140    1.400   .     S
C135   C137    1.401   .     S
C135   C136    1.451   .     S
C137   H37     1.081   .     S
C137   C138    1.399   .     S
C138   C139    1.390   .     S
C138   O26     1.380   .     S
C139   O25     1.379   .     S
C139   C140    1.398   .     S
C140   H38     1.081   .     S
O25    B13     1.463   .     S
B13    C174    1.562   .     S
B13    O26     1.462   .     S
N39    C141    1.338   .     S
C141   N40     1.355   .     S
C141   C144    1.449   .     S
N40    C142    1.356   .     S
C142   N41     1.339   .     S
C142   C143    1.453   .     S
C143   C144    1.368   .     S
C143   C148    1.402   .     S
C144   C145    1.399   .     S
C145   C146    1.397   .     S
C145   H40     1.081   .     S
C146   C147    1.390   .     S
C146   O27     1.378   .     S
C147   O28     1.381   .     S
C147   C148    1.400   .     S
C148   H39     1.081   .     S
C149   N41     1.339   .     S
C150   C151    1.399   .     S
O27    B14     1.462   .     S
B14    C152    1.562   .     S
B14    O28     1.463   .     S
C152   C155    1.403   .     S
C152   C153    1.405   .     S
C153   N43     1.087   .     S
C153   C175    1.398   .     S
C154   C174    1.402   .     S
C154   C155    1.468   .     S
C154   H41     1.087   .     S
C155   H42     1.088   .     S
N42    C175    1.086   .     S
C156   N44     1.356   .     S
C156   C157    1.451   .     S
C157   C159    1.401   .     S
C158   O30     1.380   .     S
C158   C159    1.399   .     S
C159   H43     1.081   .     S
N45    C160    1.338   .     S
C160   N46     1.356   .     S
C160   C162    1.453   .     S
B15    O30     1.462   .     S
B15    C172    1.564   .     S
C162   C168    1.402   .     S
C163   C165    1.400   .     S
C163   C164    1.452   .     S
C165   C166    1.398   .     S
C165   H45     1.081   .     S
C167   O31     1.381   .     S
C167   C168    1.400   .     S
C168   H46     1.081   .     S
C166   O32     1.379   .     S
O31    B16     1.463   .     S
B16    C169    1.564   .     S
C169   C176    1.405   .     S
C170   C171    1.395   .     S
C170   H48     1.088   .     S
C171   H47     1.088   .     S
C172   C173    1.406   .     S
C173   N47     1.086   .     S
C173   C176    1.397   .     S
N48    C176    1.086   .     S
C174   C175    1.406   .     S
